
  EPA STORM WATER MANAGEMENT MODEL - VERSION 5.1 (Build 5.3.0.dev0)
  --------------------------------------------------------------

  WARNING 04: minimum elevation drop used for Conduit WS02004404WS02004405
  WARNING 03: negative offset ignored for Link YS02001904YS02001907
  
  *********************************************************
  NOTE: The summary statistics displayed in this report are
  based on results found at every computational time step,  
  not just on results from each reporting time step.
  *********************************************************
  
  ****************
  Analysis Options
  ****************
  Flow Units ............... LPS
  Process Models:
    Rainfall/Runoff ........ YES
    RDII ................... NO
    Snowmelt ............... NO
    Groundwater ............ NO
    Flow Routing ........... YES
    Ponding Allowed ........ NO
    Water Quality .......... NO
  Infiltration Method ...... HORTON
  Flow Routing Method ...... DYNWAVE
  Surcharge Method ......... EXTRAN
  Starting Date ............ 08/28/2015 08:00:00
  Ending Date .............. 08/28/2015 15:50:00
  Antecedent Dry Days ...... 8.0
  Report Time Step ......... 00:01:00
  Wet Time Step ............ 00:01:00
  Dry Time Step ............ 00:01:00
  Routing Time Step ........ 5.00 sec
  Variable Time Step ....... YES
  Maximum Trials ........... 8
  Number of Threads ........ 4
  Head Tolerance ........... 0.001500 m
  
  
  **************************        Volume         Depth
  Runoff Quantity Continuity     hectare-m            mm
  **************************     ---------       -------
  Total Precipitation ......         6.144        13.452
  Evaporation Loss .........         0.000         0.000
  Infiltration Loss ........         1.572         3.442
  Surface Runoff ...........         3.480         7.619
  Final Storage ............         1.093         2.393
  Continuity Error (%) .....        -0.016
  
  
  **************************        Volume        Volume
  Flow Routing Continuity        hectare-m      10^6 ltr
  **************************     ---------     ---------
  Dry Weather Inflow .......         0.616         6.165
  Wet Weather Inflow .......         3.479        34.788
  Groundwater Inflow .......         0.000         0.000
  RDII Inflow ..............         0.000         0.000
  External Inflow ..........         0.102         1.024
  External Outflow .........         2.167        21.672
  Flooding Loss ............         1.515        15.153
  Evaporation Loss .........         0.000         0.000
  Exfiltration Loss ........         0.000         0.000
  Initial Stored Volume ....         0.076         0.761
  Final Stored Volume ......         0.643         6.431
  Continuity Error (%) .....        -1.213
  
  
  *************************
  Highest Continuity Errors
  *************************
  Node HS02004842 (15.27%)
  Node YS02001884 (11.51%)
  Node JK-storage (-5.29%)
  Node YSB1171 (2.79%)
  Node HS02004817 (2.78%)
  
  
  ***************************
  Time-Step Critical Elements
  ***************************
  Link 3 (46.20%)
  Link WS02006252WS02006251 (42.67%)
  Link WS02006238WS02006235 (3.50%)
  Link WS02006280WS02006229 (1.41%)
  
  
  ********************************
  Highest Flow Instability Indexes
  ********************************
  Link YS02163601YS02164001 (40)
  Link YS02163301YS02001633 (39)
  Link YS02001629YS02163301 (39)
  Link YS02001619YS02001622 (39)
  Link YS02164001YS02001641 (37)
  
  
  *************************
  Routing Time Step Summary
  *************************
  Minimum Time Step           :     0.50 sec
  Average Time Step           :     0.78 sec
  Maximum Time Step           :     5.00 sec
  Percent in Steady State     :    -0.00
  Average Iterations per Step :     4.61
  Percent Not Converging      :    21.70
  
  
  ***************************
  Subcatchment Runoff Summary
  ***************************
  
  ------------------------------------------------------------------------------------------------------------------------------
                            Total      Total      Total      Total     Imperv       Perv      Total       Total     Peak  Runoff
                           Precip      Runon       Evap      Infil     Runoff     Runoff     Runoff      Runoff   Runoff   Coeff
  Subcatchment                 mm         mm         mm         mm         mm         mm         mm    10^6 ltr      LPS
  ------------------------------------------------------------------------------------------------------------------------------
  sub0                      13.45       0.00       0.00       0.89      11.25       0.05      11.30        0.01     3.67   0.840
  sub1                      13.45       0.00       0.00       1.45      10.71       0.03      10.74        0.07    24.31   0.799
  sub2                      13.45       0.00       0.00       4.95       7.56       0.02       7.58        0.07    22.93   0.564
  sub3                      13.45       0.00       0.00       4.96       7.52       0.02       7.54        0.17    51.30   0.560
  sub4                      13.45       0.00       0.00       1.46      10.54       0.02      10.56        0.22    61.94   0.785
  sub5                      13.45       0.00       0.00       0.91      11.19       0.03      11.22        0.13    43.21   0.834
  sub7                      13.45       0.00       0.00       1.17      10.98       0.04      11.03        0.04    13.69   0.820
  sub8                      13.45       0.00       0.00       1.17      10.97       0.04      11.01        0.07    25.15   0.819
  sub9                      13.45       0.00       0.00       1.17      10.97       0.04      11.01        0.05    18.81   0.818
  sub10                     13.45       0.00       0.00       1.04      11.08       0.03      11.11        0.12    42.29   0.826
  sub11                     13.45       0.00       0.00       1.04      11.10       0.04      11.14        0.13    46.68   0.828
  sub12                     13.45       0.00       0.00       1.69      10.51       0.06      10.58        0.09    35.94   0.786
  sub14                     13.45       0.00       0.00       1.17      10.97       0.04      11.01        0.10    37.02   0.818
  sub15                     13.45       0.00       0.00       4.00       8.43       0.04       8.47        0.15    51.03   0.630
  sub16                     13.45       0.00       0.00       4.38       8.09       0.06       8.15        0.09    32.58   0.606
  sub17                     13.45       0.00       0.00       4.25       8.21       0.06       8.27        0.07    26.73   0.615
  sub22                     13.45       0.00       0.00       5.74       6.88       0.04       6.92        0.44   159.06   0.514
  sub23                     13.45       0.00       0.00       4.93       7.60       0.05       7.65        0.36   133.95   0.569
  sub60                     13.45       0.00       0.00       1.61       8.73       0.00       8.74        2.65   387.96   0.649
  sub61                     13.45       0.00       0.00       2.28       8.88       0.00       8.88        2.74   483.52   0.660
  sub62                     13.45       0.00       0.00       1.07       9.65       0.00       9.66        2.97   496.42   0.718
  sub63                     13.45       0.00       0.00       3.90       7.77       0.00       7.77        2.35   446.68   0.578
  sub64                     13.45       0.00       0.00       2.01       8.38       0.00       8.38        2.55   368.35   0.623
  sub65                     13.45       0.00       0.00       1.75       8.52       0.00       8.52        2.62   373.60   0.634
  sub66                     13.45       0.00       0.00       3.90       7.19       0.00       7.19        2.21   337.96   0.535
  sub67                     13.45       0.00       0.00       1.07      10.19       0.01      10.19        3.15   622.58   0.758
  sub68                     13.45       0.00       0.00       1.88       9.34       0.01       9.34        2.87   531.38   0.694
  sub69                     13.45       0.00       0.00       2.01       9.68       0.01       9.69        2.26   503.32   0.720
  sub70                     13.45       9.89       0.00       7.67      12.93       0.26      13.20        3.02   423.72   0.565
  sub71                     13.45       0.00       0.00       1.07       9.40       0.00       9.40        2.22   347.35   0.699
  sub72                     13.45       0.00       0.00       0.94       7.49       0.00       7.50        1.53   163.23   0.557
  sub73                     13.45      12.84       0.00       8.67      14.26       0.27      14.53        3.41   375.92   0.552
  sub74                     13.45       0.00       0.00      10.09       2.88       0.00       2.89        1.15   273.25   0.215
  
  
  ******************
  Node Depth Summary
  ******************
  
  ---------------------------------------------------------------------------------
                                 Average  Maximum  Maximum  Time of Max    Reported
                                   Depth    Depth      HGL   Occurrence   Max Depth
  Node                 Type       Meters   Meters   Meters  days hr:min      Meters
  ---------------------------------------------------------------------------------
  WS02001211           JUNCTION     0.67     0.80     5.63     0  03:20        0.80
  WS02001212           JUNCTION     0.40     0.51     5.58     0  03:21        0.51
  WS02001213           JUNCTION     0.64     0.77     5.53     0  03:21        0.77
  WS02003069           JUNCTION     0.47     0.62     5.20     0  03:10        0.62
  WS02003072           JUNCTION     0.53     0.67     5.04     0  03:11        0.67
  WS02003073           JUNCTION     0.32     0.42     4.48     0  03:11        0.42
  WS02003060           JUNCTION     0.42     0.55     5.48     0  03:10        0.55
  WS02003066           JUNCTION     0.25     0.36     5.91     0  03:05        0.36
  WS02003059           JUNCTION     0.70     0.82     5.51     0  03:21        0.82
  WS02003067           JUNCTION     0.61     0.78     6.10     0  03:05        0.78
  WS02004401           JUNCTION     0.74     1.10     7.10     0  03:03        1.10
  WS02004402           JUNCTION     0.76     1.11     7.07     0  03:03        1.11
  WS02004403           JUNCTION     0.78     1.10     7.03     0  03:03        1.10
  WS02004404           JUNCTION     0.86     1.15     7.00     0  03:03        1.15
  WS02004406           JUNCTION     0.86     1.10     6.93     0  03:03        1.10
  WS02004409           JUNCTION     0.55     0.85     6.62     0  03:05        0.85
  WS02004410           JUNCTION     0.57     0.85     6.57     0  03:04        0.85
  WS02004411           JUNCTION     0.58     0.84     6.52     0  03:04        0.84
  WS02004412           JUNCTION     0.59     0.83     6.47     0  03:05        0.83
  WS02004413           JUNCTION     0.75     0.97     6.44     0  03:05        0.97
  WS02004405           JUNCTION     0.85     1.13     6.98     0  03:03        1.13
  WS02006109           JUNCTION     0.83     1.26     7.88     0  03:02        1.25
  WS02006110           JUNCTION     0.80     1.11     7.69     0  03:02        1.10
  WS02006111           JUNCTION     0.25     0.60     7.31     0  03:03        0.59
  WS02006112           JUNCTION     0.92     1.38     7.26     0  03:03        1.37
  WS02006113           JUNCTION     0.38     0.61     7.50     0  03:03        0.61
  WS02006115           JUNCTION     0.63     1.06     7.20     0  03:03        1.06
  WS02006116           JUNCTION     0.71     1.11     7.15     0  03:03        1.11
  WS02006230           JUNCTION     0.83     1.38     8.13     0  03:02        1.37
  WS02006231           JUNCTION     0.56     1.02     8.14     0  03:02        1.01
  WS02006232           JUNCTION     0.70     1.11     8.15     0  03:02        1.10
  WS02006234           JUNCTION     0.62     1.00     8.16     0  03:02        1.00
  WS02006235           JUNCTION     0.65     1.01     8.17     0  03:02        1.00
  WS02006238           JUNCTION     0.68     1.03     8.18     0  03:03        1.02
  WS02006240           JUNCTION     0.59     0.91     8.21     0  03:02        0.91
  WS02006242           JUNCTION     0.64     0.96     8.23     0  03:02        0.95
  WS02006243           JUNCTION     0.53     0.82     8.24     0  03:02        0.82
  WS02006245           JUNCTION     0.50     0.78     8.26     0  03:02        0.78
  WS02006247           JUNCTION     0.52     0.78     8.28     0  03:03        0.78
  WS02006248           JUNCTION     0.46     0.70     8.29     0  03:03        0.70
  WS02006249           JUNCTION     0.48     0.70     8.30     0  03:03        0.70
  WS02006239           JUNCTION     0.64     0.98     8.19     0  03:02        0.97
  WS02006251           JUNCTION     0.49     0.80     8.47     0  03:02        0.80
  WS02006252           JUNCTION     0.43     0.59     8.84     0  03:48        0.59
  WS02006253           JUNCTION     0.51     0.83     8.47     0  03:02        0.83
  WS02006256           JUNCTION     1.07     1.22     8.15     0  03:10        1.22
  WS02004138           JUNCTION     0.15     0.19     7.44     0  07:10        0.19
  WS02004407           JUNCTION     0.25     0.36     6.68     0  03:04        0.36
  WS02006228           JUNCTION     0.84     1.38     8.03     0  03:02        1.36
  WS02006229           JUNCTION     0.82     1.42     8.11     0  03:02        1.41
  WS02006280           JUNCTION     0.08     0.24     8.52     0  03:02        0.24
  WS02006284           JUNCTION     0.38     0.63     9.02     0  03:02        0.62
  WS02006287           JUNCTION     0.11     0.37     9.32     0  03:02        0.37
  WSF200               JUNCTION     0.25     0.39     5.62     0  03:05        0.39
  HS02004901           JUNCTION     0.14     0.35    10.17     0  03:01        0.35
  HS02004881           JUNCTION     0.01     0.05     9.08     0  03:01        0.05
  HS02004876           JUNCTION     0.05     0.15     9.18     0  03:01        0.15
  HS02004870           JUNCTION     0.02     0.09     9.37     0  03:01        0.09
  HS02004862           JUNCTION     0.02     0.10     9.49     0  03:01        0.10
  HS02004856           JUNCTION     0.08     0.15     9.57     0  03:01        0.15
  HS02004852           JUNCTION     0.01     0.07     9.58     0  03:02        0.07
  HS02004848           JUNCTION     0.01     0.06     9.67     0  03:01        0.06
  HS02004842           JUNCTION     0.34     0.40     9.67     0  03:01        0.40
  HS02004837           JUNCTION     0.03     0.09     9.67     0  03:01        0.09
  HS02004830           JUNCTION     0.04     0.10     9.57     0  03:01        0.10
  HS02004824           JUNCTION     0.03     0.11     9.51     0  03:02        0.11
  HS02004817           JUNCTION     0.45     0.67     9.52     0  03:02        0.67
  HS02004807           JUNCTION     0.14     0.34     9.51     0  03:02        0.34
  HS02004802           JUNCTION     0.17     0.38     9.50     0  03:02        0.38
  HS02004799           JUNCTION     0.14     0.43     9.65     0  03:01        0.43
  HS02004792           JUNCTION     0.04     0.20     9.72     0  03:01        0.19
  HS02004788           JUNCTION     0.03     0.14    10.04     0  03:02        0.14
  HS02004785           JUNCTION     0.06     0.23    10.13     0  03:02        0.23
  HS02004777           JUNCTION     0.16     0.37    10.17     0  03:01        0.37
  HS02004770           JUNCTION     0.13     0.34    10.17     0  03:01        0.34
  HS02004480           JUNCTION     0.09     0.35     9.59     0  03:01        0.35
  HS02004479           JUNCTION     0.13     0.39     9.60     0  03:01        0.39
  HS02004478           JUNCTION     0.07     0.26     9.48     0  03:01        0.26
  YS02001745           JUNCTION     0.69     0.89     8.41     0  03:34        0.89
  YS02001748           JUNCTION     1.07     2.27     9.35     0  02:46        1.32
  YS02001751           JUNCTION     1.26     2.20     9.08     0  02:47        1.53
  YS02001754           JUNCTION     1.51     2.20     8.81     0  02:47        1.80
  YS02001762           JUNCTION     1.71     2.07     8.47     0  02:48        2.03
  YS02001765           JUNCTION     1.66     2.04     8.49     0  02:48        1.98
  YS02001767           JUNCTION     1.63     1.97     8.46     0  02:48        1.93
  YS02001770           JUNCTION     1.62     1.95     8.44     0  02:47        1.91
  YS02001774           JUNCTION     1.69     2.02     8.44     0  02:48        1.97
  YS02001779           JUNCTION     1.44     1.68     8.37     0  02:46        1.68
  YS02001882           JUNCTION     0.59     1.66     8.38     0  02:49        1.62
  YS02001884           JUNCTION     0.69     1.75     8.36     0  02:52        1.72
  YS02001759           JUNCTION     1.74     2.13     8.49     0  02:48        2.06
  YS02001887           JUNCTION     0.77     1.81     8.35     0  02:52        1.80
  YS02001890           JUNCTION     0.80     1.81     8.32     0  02:52        1.81
  YS02001898           JUNCTION     0.56     1.58     8.31     0  02:52        1.56
  YS02001901           JUNCTION     0.68     1.68     8.29     0  02:52        1.67
  YS02001904           JUNCTION     0.66     1.64     8.27     0  02:52        1.63
  YS02001907           JUNCTION     0.99     1.96     8.25     0  02:52        1.96
  YS02001910           JUNCTION     0.78     1.86     8.36     0  02:52        1.78
  YS02001915           JUNCTION     0.58     1.78     8.49     0  02:52        1.59
  YS02001918           JUNCTION     0.32     1.66     8.72     0  02:52        1.28
  YS02001619           JUNCTION     1.23     1.61     8.54     0  02:45        1.47
  YS02001629           JUNCTION     1.58     1.85     8.40     0  02:44        1.84
  YS02001641           JUNCTION     1.68     1.95     8.38     0  02:49        1.93
  YS02001644           JUNCTION     1.68     1.92     8.35     0  02:46        1.92
  YS02001652           JUNCTION     1.52     2.16     8.76     0  02:57        2.10
  YS02001655           JUNCTION     1.29     2.20     9.05     0  02:39        2.09
  YS02001920           JUNCTION     0.42     1.46     8.47     0  02:52        1.36
  YS02001923           JUNCTION     0.25     1.23     8.49     0  02:53        1.12
  YS02001926           JUNCTION     0.30     1.38     8.83     0  02:53        0.98
  YS02001929           JUNCTION     0.17     0.79     8.48     0  02:53        0.75
  YS02001658           JUNCTION     1.02     2.30     9.44     0  03:00        2.06
  YS02001661           JUNCTION     0.80     2.46     9.86     0  03:00        1.92
  YS02001664           JUNCTION     0.35     0.57     8.50     0  04:13        0.56
  YS02001622           JUNCTION     1.25     1.62     8.52     0  02:45        1.49
  YS02001633           JUNCTION     1.67     1.97     8.42     0  02:49        1.94
  YS02001649           JUNCTION     1.72     2.05     8.44     0  02:48        2.05
  YS02001757           JUNCTION     1.84     2.21     8.47     0  02:47        2.16
  YS02001895           JUNCTION     0.56     1.57     8.32     0  02:52        1.56
  YS02001625           JUNCTION     1.53     1.78     8.38     0  02:44        1.78
  YS02163301           JUNCTION     1.61     1.90     8.42     0  02:47        1.88
  YS02163601           JUNCTION     1.72     2.02     8.42     0  02:49        1.98
  YS02164001           JUNCTION     1.66     1.95     8.40     0  02:49        1.91
  YS02001647           JUNCTION     1.51     1.82     8.43     0  02:48        1.80
  YSB1154              JUNCTION     0.27     0.54     9.60     0  03:01        0.54
  YSB6556              JUNCTION     0.16     0.43     9.60     0  03:02        0.43
  YSB1174              JUNCTION     0.22     0.49     9.60     0  03:01        0.49
  YSB1171              JUNCTION     0.42     0.69     9.60     0  03:01        0.69
  YS02006553           JUNCTION     0.99     1.97     8.25     0  02:52        1.96
  YS02006561           JUNCTION     0.35     1.13     7.79     0  02:52        1.09
  YS02006556           JUNCTION     0.96     1.93     8.24     0  02:52        1.93
  YS02006558           JUNCTION     1.00     1.97     8.24     0  03:00        1.97
  YS02001783           JUNCTION     0.60     1.52     7.66     0  02:52        1.47
  YS02001784           JUNCTION     0.62     1.86     7.93     0  02:48        1.42
  YS02001786           JUNCTION     0.56     2.23     8.26     0  02:48        1.26
  YS02001788           JUNCTION     0.50     2.28     8.26     0  02:48        1.12
  YS02001790           JUNCTION     0.65     1.96     7.60     0  02:48        1.29
  YS02001791           JUNCTION     0.65     2.72     8.19     0  02:47        1.27
  YS02001793           JUNCTION     0.91     2.02     6.85     0  02:47        1.80
  WS02004139           JUNCTION     0.61     0.74     5.65     0  03:20        0.74
  WSC                  OUTFALL      0.32     0.42     1.09     0  03:11        0.42
  3                    OUTFALL      0.11     0.22     6.22     0  03:10        0.22
  4                    OUTFALL      0.05     0.20     7.20     0  03:03        0.20
  5                    OUTFALL      0.00     0.00     5.00     0  00:00        0.00
  JK-storage           STORAGE      3.29     5.80     6.60     0  02:48        5.80
  CC-storage           STORAGE      1.05     1.40     8.40     0  03:33        1.40
  XR-storage           STORAGE      7.47     7.72     5.72     0  02:27        7.72
  
  
  *******************
  Node Inflow Summary
  *******************
  
  -------------------------------------------------------------------------------------------------
                                  Maximum  Maximum                  Lateral       Total        Flow
                                  Lateral    Total  Time of Max      Inflow      Inflow     Balance
                                   Inflow   Inflow   Occurrence      Volume      Volume       Error
  Node                 Type           LPS      LPS  days hr:min    10^6 ltr    10^6 ltr     Percent
  -------------------------------------------------------------------------------------------------
  WS02001211           JUNCTION      7.35   383.41     0  03:20       0.207        6.73       0.583
  WS02001212           JUNCTION      0.00   381.38     0  03:20           0        6.69       0.301
  WS02001213           JUNCTION      0.00   381.36     0  03:21           0        6.67       0.375
  WS02003069           JUNCTION      0.32  1039.49     0  03:10     0.00902        15.9       0.212
  WS02003072           JUNCTION      0.00  1039.45     0  03:11           0        15.9       0.251
  WS02003073           JUNCTION      1.82  1041.23     0  03:11      0.0514        15.9       0.287
  WS02003060           JUNCTION     16.53  1039.39     0  03:10       0.466          16       0.200
  WS02003066           JUNCTION      0.00   798.14     0  03:05           0        8.89       0.057
  WS02003059           JUNCTION      0.00   383.08     0  03:21           0        6.65       0.637
  WS02003067           JUNCTION      0.00   797.67     0  03:05           0         8.9       0.116
  WS02004401           JUNCTION      0.00   801.48     0  03:03           0        9.17       0.265
  WS02004402           JUNCTION      0.00   801.56     0  03:03           0        9.14       0.246
  WS02004403           JUNCTION      0.00   801.61     0  03:03           0        9.12       0.221
  WS02004404           JUNCTION      0.16   801.82     0  03:03     0.00457         9.1       0.164
  WS02004406           JUNCTION      0.00   801.89     0  03:03           0        9.07       0.398
  WS02004409           JUNCTION      0.00   801.65     0  03:04           0        9.02       0.217
  WS02004410           JUNCTION      0.00   799.76     0  03:04           0           9       0.240
  WS02004411           JUNCTION      0.00   798.49     0  03:04           0        8.98       0.243
  WS02004412           JUNCTION      0.00   797.81     0  03:04           0        8.96       0.257
  WS02004413           JUNCTION      0.00   797.59     0  03:05           0        8.94       0.373
  WS02004405           JUNCTION      0.04   801.87     0  03:03     0.00107        9.09       0.244
  WS02006109           JUNCTION      1.23   787.45     0  03:02      0.0347        9.23       0.219
  WS02006110           JUNCTION      0.00   787.41     0  03:02           0        9.21       0.250
  WS02006111           JUNCTION      0.00   783.84     0  03:03           0        9.18       0.058
  WS02006112           JUNCTION     26.73   801.00     0  03:03      0.0709        9.24       0.346
  WS02006113           JUNCTION      0.00   787.40     0  03:02           0        9.19       0.128
  WS02006115           JUNCTION      0.00   801.00     0  03:03           0        9.21       0.259
  WS02006116           JUNCTION      0.00   801.31     0  03:03           0        9.19       0.242
  WS02006230           JUNCTION     10.28   400.63     0  04:20        0.29        7.14       0.202
  WS02006231           JUNCTION      0.00   390.62     0  04:20           0        6.87       0.222
  WS02006232           JUNCTION      0.00   390.61     0  04:20           0        6.89       0.255
  WS02006234           JUNCTION      0.00   390.77     0  04:20           0         6.9       0.157
  WS02006235           JUNCTION      0.00   390.75     0  04:20           0        6.97       0.176
  WS02006238           JUNCTION      0.00   333.92     0  06:20           0        5.19       0.163
  WS02006240           JUNCTION      0.00   334.59     0  06:20           0        5.18       0.312
  WS02006242           JUNCTION      0.00   336.41     0  06:21           0        5.19       0.364
  WS02006243           JUNCTION      0.00   340.35     0  07:11           0        5.19       0.137
  WS02006245           JUNCTION      0.00   342.80     0  07:10           0         5.2       0.253
  WS02006247           JUNCTION      0.00   347.20     0  03:40           0        5.21       0.204
  WS02006248           JUNCTION      0.00   353.57     0  03:40           0        5.22       0.149
  WS02006249           JUNCTION      0.00   531.77     0  03:02           0        6.41       0.230
  WS02006239           JUNCTION      0.00   334.71     0  06:20           0        5.18       0.232
  WS02006251           JUNCTION      0.08   533.11     0  03:01     0.00217        6.45       0.223
  WS02006252           JUNCTION      0.00   400.00     0  02:40           0        6.02       0.009
  WS02006253           JUNCTION      3.67   134.78     0  03:01     0.00915       0.434       1.952
  WS02006256           JUNCTION      0.00   600.00     0  03:10           0        6.45       0.045
  WS02004138           JUNCTION      0.00   379.99     0  04:20           0        6.55       0.059
  WS02004407           JUNCTION      0.00   801.97     0  03:03           0        9.03       0.098
  WS02006228           JUNCTION      0.00   786.23     0  03:02           0        9.21       0.169
  WS02006229           JUNCTION      0.00   786.31     0  03:02           0        9.23       0.133
  WS02006280           JUNCTION      0.00   611.94     0  03:02           0         2.1       0.003
  WS02006284           JUNCTION      0.10   611.05     0  03:02      0.0027         2.1       0.059
  WS02006287           JUNCTION      0.00   609.82     0  03:02           0         2.1       0.034
  WSF200               JUNCTION      0.00   798.25     0  03:05           0        8.89       0.059
  HS02004901           JUNCTION     32.58    32.58     0  03:01      0.0853      0.0856       2.107
  HS02004881           JUNCTION     13.69   131.68     0  03:01      0.0372       0.403       0.066
  HS02004876           JUNCTION     24.31   119.36     0  03:01      0.0714       0.367       0.153
  HS02004870           JUNCTION     25.15    96.63     0  03:01      0.0703       0.295       0.038
  HS02004862           JUNCTION     23.13    73.48     0  03:01      0.0763       0.225       0.079
  HS02004856           JUNCTION     18.81    51.87     0  03:01      0.0529        0.15       0.973
  HS02004852           JUNCTION      0.00    35.11     0  03:01           0      0.0975       0.061
  HS02004848           JUNCTION     51.30    51.30     0  03:01        0.17        0.17       0.030
  HS02004842           JUNCTION      0.00    15.11     0  03:01           0      0.0852      18.027
  HS02004837           JUNCTION     48.64    62.30     0  03:01       0.302       0.374       0.217
  HS02004830           JUNCTION      0.15    61.39     0  03:01     0.00423       0.364       0.340
  HS02004824           JUNCTION     61.99   121.76     0  03:01       0.222       0.584       0.093
  HS02004817           JUNCTION      0.60   117.99     0  03:02      0.0169       0.601       2.855
  HS02004807           JUNCTION     46.68   158.05     0  03:01       0.129       0.713       0.602
  HS02004802           JUNCTION      0.00   156.91     0  03:03           0       0.709       0.571
  HS02004799           JUNCTION     37.02   389.10     0  03:01       0.105        1.19       0.208
  HS02004792           JUNCTION    159.34   356.45     0  03:01       0.445        1.08       0.038
  HS02004788           JUNCTION     52.70   202.57     0  03:02       0.193       0.638       0.062
  HS02004785           JUNCTION      0.15   157.28     0  03:01     0.00423       0.447       0.112
  HS02004777           JUNCTION      0.03   160.01     0  03:01    0.000846       0.447       1.175
  HS02004770           JUNCTION    133.95   163.77     0  03:01       0.365       0.449       0.699
  HS02004480           JUNCTION      0.00   456.69     0  03:01           0         1.4       0.084
  HS02004479           JUNCTION      0.00    72.19     0  03:02           0       0.228       0.322
  HS02004478           JUNCTION      0.00   609.29     0  03:02           0         2.1       0.018
  YS02001745           JUNCTION    387.96   415.55     0  02:47        2.65        2.65       0.382
  YS02001748           JUNCTION      0.04   641.50     0  02:47     0.00127        2.64       0.847
  YS02001751           JUNCTION      0.01   403.04     0  03:01     0.00031        2.62       0.913
  YS02001754           JUNCTION      0.26   403.05     0  03:01     0.00733         2.6       0.960
  YS02001762           JUNCTION      0.00   397.71     0  02:55           0        2.02       1.062
  YS02001765           JUNCTION      0.00   397.83     0  02:55           0        2.02       1.222
  YS02001767           JUNCTION      0.54   397.95     0  02:55      0.0151        2.04       1.784
  YS02001770           JUNCTION    496.57   496.57     0  03:01        2.97        3.06       1.051
  YS02001774           JUNCTION      0.00   394.71     0  03:36           0        1.09       2.374
  YS02001779           JUNCTION      0.01   394.58     0  03:36    0.000141        1.06       1.456
  YS02001882           JUNCTION      0.00    25.66     0  02:49           0      0.0208      12.513
  YS02001884           JUNCTION      0.00    24.89     0  02:49           0      0.0558      13.013
  YS02001759           JUNCTION    483.56   798.95     0  02:57        2.74        4.64       0.497
  YS02001887           JUNCTION    623.03   623.03     0  03:01        3.16        3.19       0.278
  YS02001890           JUNCTION      0.00   623.22     0  03:01           0        3.14       0.301
  YS02001898           JUNCTION      0.00   517.14     0  03:06           0        3.09       0.119
  YS02001901           JUNCTION      0.00   517.20     0  03:06           0        3.08       0.226
  YS02001904           JUNCTION      0.00   517.13     0  03:06           0        3.08       0.209
  YS02001907           JUNCTION      0.00  1069.21     0  02:54           0        6.88       0.358
  YS02001910           JUNCTION      0.00   581.56     0  02:54           0        3.81       0.322
  YS02001915           JUNCTION    347.37   581.40     0  02:54        2.22        3.86       0.164
  YS02001918           JUNCTION      0.00   311.77     0  02:54           0        1.67       0.112
  YS02001619           JUNCTION    337.96   337.96     0  03:01        2.21        2.21       0.554
  YS02001629           JUNCTION      0.00   234.07     0  02:51           0        1.58       1.840
  YS02001641           JUNCTION      0.00   493.00     0  02:51           0         4.1       0.516
  YS02001644           JUNCTION    368.39  1123.40     0  03:35        2.55        8.43       0.310
  YS02001652           JUNCTION      0.00   490.11     0  03:01           0        2.31       1.023
  YS02001655           JUNCTION      0.15   489.83     0  03:01     0.00434        2.33       1.099
  YS02001920           JUNCTION      2.87   311.99     0  02:54      0.0809        1.65       0.192
  YS02001923           JUNCTION      0.04   284.43     0  02:54     0.00106        1.55       0.041
  YS02001926           JUNCTION      0.05   226.55     0  02:54     0.00147        1.54       0.223
  YS02001929           JUNCTION    163.23   171.43     0  02:53        1.53        1.53       0.038
  YS02001658           JUNCTION      0.00   612.29     0  02:45           0        2.35       1.003
  YS02001661           JUNCTION      0.00   760.29     0  03:03           0        3.04      -0.201
  YS02001664           JUNCTION    446.68   446.68     0  03:01        2.35        3.04       0.178
  YS02001622           JUNCTION      0.00   338.22     0  03:01           0        2.19       1.470
  YS02001633           JUNCTION    373.80   493.60     0  02:51        2.63        4.16       0.780
  YS02001649           JUNCTION      0.00  1048.55     0  02:52           0        5.21       0.718
  YS02001757           JUNCTION      0.00  2037.69     0  02:53           0        10.4       0.892
  YS02001895           JUNCTION      0.00   517.14     0  03:06           0        3.09       0.162
  YS02001625           JUNCTION      0.00   337.99     0  03:01           0        2.16       1.815
  YS02163301           JUNCTION      0.00   233.77     0  02:51           0        1.56       1.560
  YS02163601           JUNCTION      0.11   493.39     0  02:51      0.0031        4.13       0.734
  YS02164001           JUNCTION      0.00   493.58     0  02:51           0         4.1       0.491
  YS02001647           JUNCTION      0.00   750.27     0  02:51           0        3.96       0.719
  YSB1154              JUNCTION     43.21    43.21     0  03:01       0.127       0.128       1.144
  YSB6556              JUNCTION      0.00    41.77     0  03:01           0       0.129       0.980
  YSB1174              JUNCTION     35.94    35.94     0  03:01      0.0924      0.0931       1.403
  YSB1171              JUNCTION      0.00    73.32     0  03:01           0       0.227       2.865
  YS02006553           JUNCTION      0.00   672.04     0  03:32           0        6.14       0.258
  YS02006561           JUNCTION      0.00   969.24     0  03:00           0        8.99       0.005
  YS02006556           JUNCTION      0.00   671.89     0  03:32           0        6.15       0.189
  YS02006558           JUNCTION    532.26   969.68     0  03:00         2.9        9.02       0.062
  YS02001783           JUNCTION      0.00   969.16     0  03:00           0        8.99       0.028
  YS02001784           JUNCTION      1.06   970.37     0  03:00      0.0299        9.01       0.046
  YS02001786           JUNCTION      0.06   970.34     0  03:01     0.00159        9.01       0.040
  YS02001788           JUNCTION      0.07   970.37     0  03:01       0.002        9.01       0.024
  YS02001790           JUNCTION      0.15   970.55     0  03:01     0.00437        9.01       0.029
  YS02001791           JUNCTION      0.00   970.57     0  03:01           0        9.01       0.013
  YS02001793           JUNCTION      0.00   970.69     0  03:01           0        9.01       0.005
  WS02004139           JUNCTION      0.32   379.56     0  07:10     0.00905        6.56       0.565
  WSC                  OUTFALL       0.00  1041.15     0  03:11           0        15.9       0.000
  3                    OUTFALL       0.00   545.93     0  03:10           0        4.63       0.000
  4                    OUTFALL       0.00   327.71     0  03:03           0        1.18       0.000
  5                    OUTFALL       0.00     0.00     0  00:00           0           0       0.000 ltr
  JK-storage           STORAGE       0.00   970.77     0  03:01           0        9.16      -5.022
  CC-storage           STORAGE       0.00  2037.55     0  02:53           0        9.55       0.652
  XR-storage           STORAGE     849.17   849.17     0  03:01        10.2        10.8      -0.001
  
  
  **********************
  Node Surcharge Summary
  **********************
  
  Surcharging occurs when water rises above the top of the highest conduit.
  ---------------------------------------------------------------------
                                               Max. Height   Min. Depth
                                   Hours       Above Crown    Below Rim
  Node                 Type      Surcharged         Meters       Meters
  ---------------------------------------------------------------------
  WS02004401           JUNCTION        0.29          0.105        1.555
  WS02004402           JUNCTION        0.40          0.108        1.632
  WS02004403           JUNCTION        0.43          0.097        1.933
  WS02004404           JUNCTION        0.89          0.150        2.630
  WS02004406           JUNCTION        0.64          0.101        2.349
  WS02004405           JUNCTION        0.71          0.131        2.669
  WS02006109           JUNCTION        2.99          0.439        1.381
  WS02006110           JUNCTION        1.09          0.196        1.654
  WS02006112           JUNCTION        1.18          0.382        1.298
  WS02006115           JUNCTION        0.11          0.047        2.203
  WS02006116           JUNCTION        0.14          0.054        2.236
  WS02006230           JUNCTION        0.87          0.303        1.267
  WS02006231           JUNCTION        1.00          0.310        1.220
  WS02006232           JUNCTION        3.23          0.412        1.068
  WS02006234           JUNCTION        1.10          0.283        0.957
  WS02006235           JUNCTION        2.38          0.301        0.989
  WS02006238           JUNCTION        2.69          0.312        1.118
  WS02006240           JUNCTION        1.05          0.204        1.186
  WS02006242           JUNCTION        2.32          0.232        0.588
  WS02006243           JUNCTION        0.77          0.115        0.655
  WS02006245           JUNCTION        0.52          0.068        0.782
  WS02006247           JUNCTION        0.56          0.065        0.695
  WS02006239           JUNCTION        1.37          0.243        1.047
  WS02006252           JUNCTION        3.60          0.193        0.907
  WS02006228           JUNCTION        2.82          0.548        1.652
  YS02001748           JUNCTION        5.00          1.190        0.000
  YS02001751           JUNCTION        5.09          1.200        0.000
  YS02001754           JUNCTION        5.26          1.150        0.000
  YS02001762           JUNCTION        5.51          1.073        0.077
  YS02001765           JUNCTION        5.48          1.038        0.062
  YS02001767           JUNCTION        5.46          0.971        0.059
  YS02001770           JUNCTION        5.36          0.920        0.000
  YS02001774           JUNCTION        5.50          1.017        0.033
  YS02001779           JUNCTION        5.26          0.680        0.000
  YS02001882           JUNCTION        1.00          0.663        0.167
  YS02001884           JUNCTION        1.03          0.687        0.183
  YS02001759           JUNCTION        5.54          1.129        0.081
  YS02001887           JUNCTION        1.12          0.761        0.189
  YS02001890           JUNCTION        1.15          0.760        0.000
  YS02001898           JUNCTION        0.96          0.545        0.195
  YS02001901           JUNCTION        1.08          0.682        0.188
  YS02001904           JUNCTION        1.06          0.641        0.209
  YS02001907           JUNCTION        1.67          0.950        0.000
  YS02001910           JUNCTION        1.20          0.858        0.242
  YS02001915           JUNCTION        1.00          0.776        0.224
  YS02001918           JUNCTION        0.76          0.659        0.151
  YS02001619           JUNCTION        5.11          0.610        0.000
  YS02001629           JUNCTION        5.12          0.470        0.000
  YS02001641           JUNCTION        5.50          0.947        0.153
  YS02001644           JUNCTION        5.50          0.920        0.000
  YS02001652           JUNCTION        5.28          1.130        0.000
  YS02001655           JUNCTION        5.12          1.200        0.000
  YS02001920           JUNCTION        0.80          0.464        0.676
  YS02001923           JUNCTION        0.01          0.019        0.801
  YS02001926           JUNCTION        0.01          0.382        0.518
  YS02001658           JUNCTION        5.02          1.300        0.000
  YS02001661           JUNCTION        0.24          1.390        0.000
  YS02001622           JUNCTION        5.13          0.620        0.000
  YS02001633           JUNCTION        5.48          0.951        0.109
  YS02001649           JUNCTION        5.52          1.050        0.000
  YS02001757           JUNCTION        5.62          1.210        0.000
  YS02001895           JUNCTION        0.98          0.569        0.181
  YS02001625           JUNCTION        5.28          0.780        0.000
  YS02163301           JUNCTION        5.45          0.902        0.128
  YS02163601           JUNCTION        5.52          1.018        0.062
  YS02164001           JUNCTION        5.49          0.947        0.153
  YS02001647           JUNCTION        5.28          0.823        0.077
  YS02006553           JUNCTION        1.72          0.969        0.221
  YS02006561           JUNCTION        0.89          0.329        0.821
  YS02006556           JUNCTION        1.42          0.892        0.458
  YS02006558           JUNCTION        1.38          0.874        0.526
  YS02001783           JUNCTION        1.38          0.722        0.878
  YS02001784           JUNCTION        1.42          1.060        0.430
  YS02001786           JUNCTION        1.36          1.430        0.000
  YS02001788           JUNCTION        1.34          1.480        0.000
  YS02001790           JUNCTION        2.74          1.157        0.000
  YS02001791           JUNCTION        2.87          1.920        0.000
  YS02001793           JUNCTION        3.06          1.019        1.581
  
  
  *********************
  Node Flooding Summary
  *********************
  
  Flooding refers to all water that overflows a node, whether it ponds or not.
  --------------------------------------------------------------------------
                                                             Total   Maximum
                                 Maximum   Time of Max       Flood    Ponded
                        Hours       Rate    Occurrence      Volume     Depth
  Node                 Flooded       LPS   days hr:min    10^6 ltr    Meters
  --------------------------------------------------------------------------
  YS02001748              0.01    346.07      0  02:48       0.001     0.000
  YS02001751              0.01     24.10      0  02:48       0.000     0.000
  YS02001754              0.01     16.86      0  02:47       0.000     0.000
  YS02001770              0.01      7.57      0  02:48       0.000     0.000
  YS02001779              2.48    394.54      0  03:36       1.036     0.000
  YS02001890              0.24    107.45      0  03:01       0.038     0.000
  YS02001907              0.63    600.94      0  03:02       0.724     0.000
  YS02001619              0.01     34.18      0  02:45       0.000     0.000
  YS02001629              0.01     32.50      0  02:45       0.000     0.000
  YS02001644              3.98   1123.37      0  03:35       6.232     0.000
  YS02001652              0.01     23.75      0  03:10       0.000     0.000
  YS02001655              0.01    170.24      0  02:41       0.000     0.000
  YS02001658              0.01     13.46      0  03:19       0.000     0.000
  YS02001661              0.01    191.23      0  03:03       0.002     0.000
  YS02001622              0.01     16.95      0  02:45       0.000     0.000
  YS02001649              0.11     56.45      0  03:03       0.006     0.000
  YS02001757              0.01     20.81      0  02:47       0.000     0.000
  YS02001625              1.15    315.69      0  03:01       0.542     0.000
  YS02001786              0.01     37.79      0  02:48       0.000     0.000
  YS02001788              0.01     39.33      0  02:48       0.000     0.000
  YS02001790              0.01    191.28      0  02:48       0.000     0.000
  YS02001791              0.01    201.67      0  02:47       0.000     0.000
  JK-storage              2.36    866.20      0  02:53       3.224     0.000
  XR-storage              4.27    649.61      0  03:01       3.346     0.000
  
  
  **********************
  Storage Volume Summary
  **********************
  
  --------------------------------------------------------------------------------------------------
                         Average     Avg  Evap Exfil       Maximum     Max    Time of Max    Maximum
                          Volume    Pcnt  Pcnt  Pcnt        Volume    Pcnt     Occurrence    Outflow
  Storage Unit           1000 m3    Full  Loss  Loss       1000 m3    Full    days hr:min        LPS
  --------------------------------------------------------------------------------------------------
  JK-storage               0.165      57     0     0         0.291     100       0  02:48     600.00
  CC-storage               2.931      19     0     0         3.891      25       0  03:33     400.00
  XR-storage               0.897      97     0     0         0.926     100       0  02:27     379.99
  
  
  ***********************
  Outfall Loading Summary
  ***********************
  
  -----------------------------------------------------------
                         Flow       Avg       Max       Total
                         Freq      Flow      Flow      Volume
  Outfall Node           Pcnt       LPS       LPS    10^6 ltr
  -----------------------------------------------------------
  WSC                  100.00    660.56   1041.15      15.862
  3                     89.05    248.17    545.93       4.630
  4                     55.84     95.06    327.71       1.179
  5                      0.00      0.00      0.00       0.000
  -----------------------------------------------------------
  System                61.22   1003.79   1833.99      21.672
  
  
  ********************
  Link Flow Summary
  ********************
  
  -----------------------------------------------------------------------------
                                 Maximum  Time of Max   Maximum    Max/    Max/
                                  |Flow|   Occurrence   |Veloc|    Full    Full
  Link                 Type          LPS  days hr:min     m/sec    Flow   Depth
  -----------------------------------------------------------------------------
  WS02003066WSF200     CONDUIT    798.25     0  03:05      2.97    0.13    0.29
  WS02006287WS02006284 CONDUIT    610.96     0  03:02      2.31    0.28    0.37
  WS02006284WS02006280 CONDUIT    611.94     0  03:02      2.55    0.26    0.35
  WS02006280WS02006229 CONDUIT    612.07     0  03:02      4.12    0.13    0.24
  WS02006229WS02006228 CONDUIT    786.23     0  03:02      1.56    2.60    1.00
  WS02006256WS02006235 CONDUIT    158.12     0  00:13      2.30    1.67    1.00
  WS02006253WS02006251 CONDUIT    132.77     0  03:01      0.45    0.40    1.00
  WS02006252WS02006251 CONDUIT    400.67     0  06:20      3.19    1.47    1.00
  WS02006251WS02006249 CONDUIT    531.77     0  03:02      1.38    1.53    1.00
  WS02006249WS02006248 CONDUIT    353.57     0  03:40      1.14    1.94    0.99
  WS02006248WS02006247 CONDUIT    347.20     0  03:40      1.09    0.76    1.00
  WS02006247WS02006245 CONDUIT    342.80     0  07:10      1.06    2.72    1.00
  WS02006245WS02006243 CONDUIT    340.35     0  07:11      1.09    1.01    1.00
  WS02006243WS02006242 CONDUIT    336.41     0  06:21      0.98    0.72    1.00
  WS02006242WS02006240 CONDUIT    334.59     0  06:20      0.94    1.33    1.00
  WS02006240WS02006239 CONDUIT    334.71     0  06:20      0.98    1.05    1.00
  WS02006239WS02006238 CONDUIT    333.92     0  06:20      0.91    1.07    1.00
  WS02006238WS02006235 CONDUIT    332.23     0  06:20      0.91    0.74    1.00
  WS02006235WS02006234 CONDUIT    390.77     0  04:20      1.03    4.12    1.00
  WS02006234WS02006232 CONDUIT    390.61     0  04:20      1.02    0.79    1.00
  WS02006232WS02006231 CONDUIT    390.62     0  04:20      1.06    0.82    1.00
  WS02006231WS02006230 CONDUIT    390.36     0  04:20      1.34    5.92    1.00
  WS02006230WS02006229 CONDUIT    400.43     0  04:20      1.04    8.91    1.00
  WS02006228WS02006109 CONDUIT    786.22     0  03:02      1.56    3.44    1.00
  WS02006116WS02004401 CONDUIT    801.48     0  03:03      1.02    1.10    1.00
  WS02006115WS02006116 CONDUIT    801.31     0  03:03      1.02    1.03    1.00
  WS02006113WS02006111 CONDUIT    783.84     0  03:03      2.59    0.94    0.75
  WS02006112WS02006115 CONDUIT    801.00     0  03:03      1.02    0.47    1.00
  WS02006111WS02006112 CONDUIT    783.99     0  03:04      1.71    0.37    0.87
  WS02006110WS02006113 CONDUIT    787.40     0  03:02      1.68    0.72    0.88
  WS02006109WS02006110 CONDUIT    787.41     0  03:02      1.57    1.51    1.00
  WS02004411WS02004412 CONDUIT    797.81     0  03:04      1.14    1.13    0.84
  WS02004401WS02004402 CONDUIT    801.56     0  03:03      1.02    0.96    1.00
  WS02004413WS02003067 CONDUIT    797.67     0  03:05      1.39    0.34    0.69
  WS02004412WS02004413 CONDUIT    797.59     0  03:05      1.07    0.53    0.90
  WS02004410WS02004411 CONDUIT    798.49     0  03:04      1.13    1.09    0.84
  WS02004409WS02004410 CONDUIT    799.76     0  03:04      1.13    1.03    0.85
  WS02004407WS02004409 CONDUIT    801.65     0  03:04      1.61    0.28    0.61
  WS02004406WS02004407 CONDUIT    801.97     0  03:03      1.40    0.36    0.68
  WS02004405WS02004406 CONDUIT    801.89     0  03:03      1.02    1.58    1.00
  WS02004404WS02004405 CONDUIT    801.83     0  03:03      1.02    7.86    1.00
  WS02004403WS02004404 CONDUIT    801.66     0  03:03      1.02    0.58    1.00
  WS02004402WS02004403 CONDUIT    801.61     0  03:03      1.02    1.15    1.00
  WS02004139WS02001211 CONDUIT    376.06     0  03:20      0.57    0.48    0.60
  WS02004138WS02004139 CONDUIT    379.23     0  07:10      2.39    0.08    0.44
  WS02003067WS02003066 CONDUIT    798.14     0  03:05      1.51    0.26    0.48
  WS02001213WS02003059 CONDUIT    383.08     0  03:21      0.64    0.63    0.78
  WS02001212WS02001213 CONDUIT    381.36     0  03:21      1.24    0.59    0.48
  WS02001211WS02001212 CONDUIT    381.38     0  03:20      0.76    0.29    0.65
  WS02003072WS02003073 CONDUIT   1039.41     0  03:11      1.79    2.24    0.51
  WS02003069WS02003072 CONDUIT   1039.45     0  03:11      1.68    0.50    0.54
  WS02003060WS02003069 CONDUIT   1039.17     0  03:10      1.91    0.41    0.48
  WS02003059WS02003060 CONDUIT    384.96     0  03:22      0.82    0.25    0.68
  HS02004901HS02004770 CONDUIT     32.24     0  03:01      0.09    0.12    0.50
  HS02004876HS02004881 CONDUIT    119.32     0  03:01      1.17    1.27    0.15
  HS02004870HS02004876 CONDUIT     96.13     0  03:01      0.79    0.06    0.17
  HS02004842HS02004848 CONDUIT     15.11     0  03:01      0.07    0.01    0.33
  HS02004837HS02004842 CONDUIT     16.10     0  03:03      0.42    0.01    0.34
  HS02004830HS02004837 CONDUIT     61.24     0  03:01      0.66    0.06    0.13
  HS02004824HS02004830 CONDUIT     60.79     0  03:01      0.63    0.08    0.15
  HS02004817HS02004824 CONDUIT    117.39     0  03:02      0.30    0.05    0.56
  HS02004770HS02004777 CONDUIT    159.98     0  03:01      0.45    0.29    0.51
  HS02004799HS02004480 CONDUIT    387.38     0  03:01      1.00    0.49    0.56
  HS02004792HS02004799 CONDUIT    353.06     0  03:01      1.12    0.22    0.45
  HS02004788HS02004792 CONDUIT    202.14     0  03:02      1.22    0.13    0.24
  HS02004785HS02004788 CONDUIT    156.68     0  03:02      0.85    1.18    0.26
  HS02004777HS02004785 CONDUIT    157.13     0  03:01      0.53    0.19    0.42
  HS02004480HS02004478 CONDUIT    456.74     0  03:01      1.47    1.92    0.44
  HS02004479HS02004480 CONDUIT     74.07     0  03:02      0.22    0.07    0.53
  HS02004862HS02004870 CONDUIT     73.11     0  03:01      0.77    0.08    0.14
  HS02004848HS02004852 CONDUIT     35.11     0  03:01      0.52    0.04    0.10
  HS02004856HS02004862 CONDUIT     51.23     0  03:01      0.58    0.05    0.13
  HS02004852HS02004856 CONDUIT     35.02     0  03:02      0.32    0.04    0.16
  HS02004802HS02004478 CONDUIT    160.68     0  03:04      0.54    0.14    0.45
  HS02004478WS02006287 CONDUIT    609.82     0  03:02      2.03    0.17    0.33
  HS02004817HS02004807 CONDUIT    120.81     0  03:04      0.24    0.07    0.73
  HS02004807HS02004802 CONDUIT    156.91     0  03:03      0.45    0.30    0.51
  YS02001759YS02001757 CONDUIT    798.94     0  02:57      1.02    0.57    1.00
  YS02001762YS02001759 CONDUIT    397.38     0  02:55      0.51    0.46    1.00
  YS02001765YS02001762 CONDUIT    397.71     0  02:55      0.51    0.37    1.00
  YS02001770YS02001767 CONDUIT    397.42     0  02:55      0.51    1.57    1.00
  YS02001774YS02001770 CONDUIT    394.71     0  03:36      0.50    0.25    1.00
  YS02001779YS02001774 CONDUIT    394.58     0  03:36      0.50    0.20    1.00
  YS02001649YS02001757 CONDUIT   1049.08     0  02:52      1.34    0.64    1.00
  YS02001767YS02001765 CONDUIT    397.83     0  02:55      0.51    0.50    1.00
  YS02006561YS02001783 CONDUIT    969.16     0  03:00      2.16    0.50    1.00
  YS02001783YS02001784 CONDUIT    969.31     0  03:00      1.93    1.34    1.00
  YS02001784YS02001785 CONDUIT    970.28     0  03:01      1.93    2.26    1.00
  YS02001788YS02001790 CONDUIT    970.40     0  03:01      2.41    0.72    1.00
  YS02001790YS02001791 CONDUIT    970.57     0  03:01      2.97    1.06    1.00
  YS02001791YS02001793 CONDUIT    970.69     0  03:01      5.84    0.42    1.00
  YS02001910YS02001907 CONDUIT    581.42     0  02:54      0.74    0.33    1.00
  YS02001786YS02001788 CONDUIT    970.30     0  03:01      2.30    1.87    1.00
  YS02001915YS02001910 CONDUIT    581.56     0  02:54      0.74    0.29    1.00
  YS02001918YS02001915 CONDUIT    312.09     0  02:54      0.44    0.17    1.00
  YS02001923YS02001920 CONDUIT    309.12     0  02:54      0.72    0.14    1.00
  YS02001926YS02001923 CONDUIT    284.40     0  02:54      0.82    0.41    1.00
  YS02001929YS02001926 CONDUIT    226.49     0  02:54      0.87    0.11    0.89
  YS02001920YS02001918 CONDUIT    311.77     0  02:54      0.70    0.30    1.00
  YS02001629YS02163301 CONDUIT    233.77     0  02:51      0.30    0.29    1.00
  YS02001619YS02001622 CONDUIT    338.22     0  03:01      0.60    0.50    1.00
  YS02001622YS02001625 CONDUIT    337.99     0  03:01      0.43    0.18    1.00
  YS02001625YS02001629 CONDUIT    234.07     0  02:51      0.30    0.11    1.00
  YS02163301YS02001633 CONDUIT    233.54     0  02:51      0.30    0.22    1.00
  YS02163601YS02164001 CONDUIT    493.58     0  02:51      0.63    0.44    1.00
  YS02164001YS02001641 CONDUIT    493.00     0  02:51      0.63    0.67    1.00
  YS02001641YS02001644 CONDUIT    493.13     0  02:51      0.63    1.59    1.00
  YS02001647YS02001649 CONDUIT    749.82     0  02:51      0.95    0.40    1.00
  YS02006553YS02006556 CONDUIT    671.89     0  03:32      0.86    0.57    1.00
  YS02006556YS02006558 CONDUIT    672.09     0  03:32      0.86    0.53    1.00
  YSB6556YSB1171       CONDUIT     41.33     0  03:02      0.13    0.04    0.80
  YS02001907YS02006553 CONDUIT    672.04     0  03:32      0.75    0.79    1.00
  YS02006558YS02006561 CONDUIT    969.24     0  03:00      3.51    2.14    1.00
  YS02001633YS02163601 CONDUIT    493.28     0  02:51      0.63    0.52    1.00
  YS02001644YS02001647 CONDUIT    750.27     0  02:51      0.96    0.44    1.00
  YS02001745YS02001748 CONDUIT    641.45     0  02:47      1.48    0.25    0.95
  YS02001748YS02001751 CONDUIT    403.03     0  03:01      1.03    0.20    1.00
  YS02001751YS02001754 CONDUIT    402.79     0  03:01      0.84    0.19    1.00
  YS02001754YS02001757 CONDUIT    403.21     0  03:01      0.51    0.16    1.00
  YS02001882YS02001884 CONDUIT     25.66     0  02:49      0.08    0.03    1.00
  YS02001884YS02001887 CONDUIT     24.89     0  02:49      0.05    0.03    1.00
  YS02001890YS02001895 CONDUIT    517.14     0  03:06      0.66    0.24    1.00
  YS02001895YS02001898 CONDUIT    517.14     0  03:06      0.66    0.90    1.00
  YS02001898YS02001901 CONDUIT    517.20     0  03:06      0.66    0.33    1.00
  YS02001901YS02001904 CONDUIT    517.13     0  03:06      0.66    0.80    1.00
  YS02001904YS02001907 CONDUIT    517.17     0  03:05      0.66    0.18    1.00
  YS02001887YS02001890 CONDUIT    623.22     0  03:01      0.79    1.07    1.00
  YS02001652YS02001649 CONDUIT    490.41     0  03:01      0.62    0.24    1.00
  YS02001655YS02001652 CONDUIT    490.11     0  03:01      0.89    0.24    1.00
  YS02001658YS02001655 CONDUIT    489.67     0  03:01      1.18    0.21    1.00
  YS02001661YS02001658 CONDUIT    612.29     0  02:45      1.56    0.24    1.00
  YS02001664YS02001661 CONDUIT    760.29     0  03:03      1.62    0.24    0.72
  YSB1154YSB6556       CONDUIT     41.77     0  03:01      0.19    0.08    0.69
  YSB1174YSB1171       CONDUIT     34.49     0  03:01      0.10    0.05    0.81
  YSB1171HS02004479    CONDUIT     72.19     0  03:02      0.54    0.05    0.65
  HS02004881HS02006253 CONDUIT    131.62     0  03:01      1.58    0.03    0.38
  YS02001793JiankangQianchi CONDUIT    970.77     0  03:01     11.60    0.08    1.00
  YS02001757CaochengTiaoxuchi CONDUIT   2037.55     0  02:53      2.94    0.89    1.00
  WSF200WS02003060     CONDUIT    798.03     0  03:05      1.99    0.18    0.39
  1                    CONDUIT   1041.15     0  03:11      3.36    0.36    0.42
  2                    CONDUIT    327.71     0  03:03      6.53    0.78    0.67
  3                    CONDUIT    545.93     0  03:10      9.92    0.87    0.73
  4                    CONDUIT      0.00     0  00:00      0.00    0.00    0.00
  CC-Pump-1            PUMP       200.00     0  02:06              1.00
  CC-Pump-2            PUMP       200.00     0  02:20              1.00
  JK-Pump-1            PUMP       300.00     0  02:20              1.00
  JK-Pump-2            PUMP       300.00     0  03:00              1.00
  XR-Pump-1            PUMP        95.00     0  00:00              1.00
  XR-Pump-2            PUMP        95.00     0  01:10              1.00
  XR-Pump-3            PUMP        95.00     0  00:40              1.00
  XR-Pump-4            PUMP        95.00     0  00:50              1.00
  
  
  ***************************
  Flow Classification Summary
  ***************************
  
  -------------------------------------------------------------------------------------
                      Adjusted    ---------- Fraction of Time in Flow Class ---------- 
                       /Actual         Up    Down  Sub   Sup   Up    Down  Norm  Inlet 
  Conduit               Length    Dry  Dry   Dry   Crit  Crit  Crit  Crit  Ltd   Ctrl  
  -------------------------------------------------------------------------------------
  WS02003066WSF200        1.00   0.05  0.00  0.00  0.00  0.95  0.00  0.00  0.61  0.00
  WS02006287WS02006284    1.00   0.03  0.01  0.00  0.57  0.38  0.00  0.00  0.67  0.00
  WS02006284WS02006280    1.00   0.04  0.00  0.00  0.00  0.00  0.00  0.96  0.00  0.00
  WS02006280WS02006229    1.00   0.04  0.00  0.00  0.00  0.00  0.00  0.96  0.00  0.00
  WS02006229WS02006228    1.00   0.00  0.00  0.00  1.00  0.00  0.00  0.00  0.00  0.00
  WS02006256WS02006235    1.00   0.00  0.00  0.00  1.00  0.00  0.00  0.00  0.00  0.00
  WS02006253WS02006251    1.00   0.02  0.01  0.00  0.96  0.00  0.00  0.00  0.00  0.00
  WS02006252WS02006251    1.00   0.07  0.00  0.00  0.00  0.00  0.93  0.00  0.00  0.00
  WS02006251WS02006249    1.00   0.00  0.00  0.00  1.00  0.00  0.00  0.00  0.24  0.00
  WS02006249WS02006248    1.00   0.00  0.00  0.00  0.92  0.00  0.08  0.00  0.00  0.00
  WS02006248WS02006247    1.00   0.00  0.00  0.00  0.98  0.00  0.00  0.02  0.12  0.00
  WS02006247WS02006245    1.00   0.00  0.00  0.00  0.98  0.00  0.00  0.02  0.00  0.00
  WS02006245WS02006243    1.00   0.01  0.00  0.00  0.96  0.00  0.00  0.04  0.01  0.00
  WS02006243WS02006242    1.00   0.01  0.00  0.00  0.99  0.00  0.00  0.00  0.19  0.00
  WS02006242WS02006240    1.00   0.00  0.00  0.00  1.00  0.00  0.00  0.00  0.00  0.00
  WS02006240WS02006239    1.00   0.00  0.00  0.00  0.97  0.00  0.00  0.03  0.02  0.00
  WS02006239WS02006238    1.00   0.00  0.00  0.00  1.00  0.00  0.00  0.00  0.00  0.00
  WS02006238WS02006235    1.00   0.00  0.00  0.00  1.00  0.00  0.00  0.00  0.00  0.00
  WS02006235WS02006234    1.00   0.00  0.00  0.00  0.97  0.00  0.03  0.00  0.00  0.00
  WS02006234WS02006232    1.00   0.00  0.00  0.00  1.00  0.00  0.00  0.00  0.00  0.00
  WS02006232WS02006231    1.00   0.00  0.00  0.00  0.99  0.00  0.00  0.00  0.00  0.00
  WS02006231WS02006230    1.00   0.00  0.00  0.00  0.86  0.00  0.13  0.00  0.00  0.00
  WS02006230WS02006229    1.00   0.00  0.00  0.00  0.99  0.00  0.00  0.01  0.00  0.00
  WS02006228WS02006109    1.00   0.00  0.00  0.00  1.00  0.00  0.00  0.00  0.00  0.00
  WS02006116WS02004401    1.00   0.02  0.00  0.00  0.98  0.00  0.00  0.00  0.00  0.00
  WS02006115WS02006116    1.00   0.02  0.00  0.00  0.97  0.00  0.00  0.01  0.00  0.00
  WS02006113WS02006111    1.00   0.02  0.00  0.00  0.03  0.96  0.00  0.00  0.09  0.00
  WS02006112WS02006115    1.00   0.02  0.00  0.00  0.98  0.00  0.00  0.00  0.00  0.00
  WS02006111WS02006112    1.00   0.02  0.00  0.00  0.98  0.00  0.00  0.00  0.87  0.00
  WS02006110WS02006113    1.00   0.00  0.01  0.00  0.98  0.00  0.00  0.00  0.00  0.00
  WS02006109WS02006110    1.00   0.00  0.00  0.00  1.00  0.00  0.00  0.00  0.00  0.00
  WS02004411WS02004412    1.00   0.04  0.00  0.00  0.96  0.00  0.00  0.00  0.00  0.00
  WS02004401WS02004402    1.00   0.02  0.00  0.00  0.98  0.00  0.00  0.00  0.00  0.00
  WS02004413WS02003067    1.00   0.04  0.01  0.00  0.00  0.00  0.95  0.00  0.00  0.00
  WS02004412WS02004413    1.00   0.04  0.00  0.00  0.96  0.00  0.00  0.00  0.03  0.00
  WS02004410WS02004411    1.00   0.04  0.00  0.00  0.96  0.00  0.00  0.00  0.03  0.00
  WS02004409WS02004410    1.00   0.03  0.00  0.00  0.97  0.00  0.00  0.00  0.03  0.00
  WS02004407WS02004409    1.00   0.03  0.00  0.00  0.96  0.00  0.00  0.00  0.87  0.00
  WS02004406WS02004407    1.00   0.00  0.03  0.00  0.97  0.00  0.00  0.00  0.00  0.00
  WS02004405WS02004406    1.00   0.00  0.00  0.00  1.00  0.00  0.00  0.00  0.03  0.00
  WS02004404WS02004405    1.00   0.00  0.00  0.00  1.00  0.00  0.00  0.00  0.00  0.00
  WS02004403WS02004404    1.00   0.00  0.02  0.00  0.98  0.00  0.00  0.00  0.01  0.00
  WS02004402WS02004403    1.00   0.02  0.00  0.00  0.98  0.00  0.00  0.00  0.00  0.00
  WS02004139WS02001211    1.00   0.00  0.00  0.00  1.00  0.00  0.00  0.00  0.00  0.00
  WS02004138WS02004139    1.00   0.00  0.00  0.00  1.00  0.00  0.00  0.00  1.00  0.00
  WS02003067WS02003066    1.00   0.05  0.00  0.00  0.95  0.00  0.00  0.00  0.00  0.00
  WS02001213WS02003059    1.00   0.00  0.00  0.00  1.00  0.00  0.00  0.00  0.00  0.00
  WS02001212WS02001213    1.00   0.00  0.00  0.00  0.92  0.00  0.08  0.00  0.00  0.00
  WS02001211WS02001212    1.00   0.00  0.00  0.00  1.00  0.00  0.00  0.00  0.00  0.00
  WS02003072WS02003073    1.00   0.00  0.00  0.00  0.00  0.00  0.00  1.00  0.00  0.00
  WS02003069WS02003072    1.00   0.00  0.00  0.00  1.00  0.00  0.00  0.00  0.23  0.00
  WS02003060WS02003069    1.00   0.00  0.00  0.00  0.98  0.02  0.00  0.00  0.09  0.00
  WS02003059WS02003060    1.00   0.00  0.00  0.00  1.00  0.00  0.00  0.00  0.02  0.00
  HS02004901HS02004770    1.00   0.04  0.00  0.00  0.96  0.00  0.00  0.00  0.01  0.00
  HS02004876HS02004881    1.00   0.00  0.00  0.00  0.89  0.11  0.00  0.00  0.00  0.00
  HS02004870HS02004876    1.00   0.00  0.00  0.00  0.99  0.01  0.00  0.00  0.95  0.00
  HS02004842HS02004848    1.00   0.00  0.04  0.00  0.96  0.00  0.00  0.00  0.58  0.00
  HS02004837HS02004842    1.00   0.00  0.00  0.00  1.00  0.00  0.00  0.00  0.11  0.00
  HS02004830HS02004837    1.00   0.00  0.00  0.00  1.00  0.00  0.00  0.00  0.99  0.00
  HS02004824HS02004830    1.00   0.00  0.00  0.00  1.00  0.00  0.00  0.00  0.01  0.00
  HS02004817HS02004824    1.00   0.00  0.00  0.00  1.00  0.00  0.00  0.00  0.98  0.00
  HS02004770HS02004777    1.00   0.00  0.04  0.00  0.96  0.00  0.00  0.00  0.04  0.00
  HS02004799HS02004480    1.00   0.00  0.01  0.00  0.96  0.00  0.03  0.00  0.00  0.00
  HS02004792HS02004799    1.00   0.00  0.00  0.00  1.00  0.00  0.00  0.00  0.98  0.00
  HS02004788HS02004792    1.00   0.00  0.00  0.00  1.00  0.00  0.00  0.00  0.98  0.00
  HS02004785HS02004788    1.00   0.00  0.00  0.00  1.00  0.00  0.00  0.00  0.00  0.00
  HS02004777HS02004785    1.00   0.00  0.00  0.00  1.00  0.00  0.00  0.00  0.15  0.00
  HS02004480HS02004478    1.00   0.04  0.00  0.00  0.66  0.00  0.00  0.31  0.00  0.00
  HS02004479HS02004480    1.00   0.02  0.00  0.00  0.98  0.00  0.00  0.00  0.13  0.00
  HS02004862HS02004870    1.00   0.00  0.00  0.00  1.00  0.00  0.00  0.00  0.06  0.00
  HS02004848HS02004852    1.00   0.04  0.00  0.00  0.96  0.00  0.00  0.00  0.64  0.00
  HS02004856HS02004862    1.00   0.00  0.05  0.00  0.95  0.00  0.00  0.00  0.79  0.00
  HS02004852HS02004856    1.00   0.04  0.00  0.00  0.96  0.00  0.00  0.00  0.81  0.00
  HS02004802HS02004478    1.00   0.04  0.00  0.00  0.96  0.00  0.00  0.00  0.03  0.00
  HS02004478WS02006287    1.00   0.04  0.00  0.00  0.72  0.24  0.00  0.00  0.66  0.00
  HS02004817HS02004807    1.00   0.00  0.04  0.00  0.96  0.00  0.00  0.00  0.01  0.00
  HS02004807HS02004802    1.00   0.04  0.00  0.00  0.96  0.00  0.00  0.00  0.00  0.00
  YS02001759YS02001757    1.00   0.00  0.00  0.00  1.00  0.00  0.00  0.00  0.17  0.00
  YS02001762YS02001759    1.00   0.00  0.00  0.00  1.00  0.00  0.00  0.00  0.04  0.00
  YS02001765YS02001762    1.00   0.00  0.00  0.00  1.00  0.00  0.00  0.00  0.17  0.00
  YS02001770YS02001767    1.00   0.00  0.00  0.00  1.00  0.00  0.00  0.00  0.00  0.00
  YS02001774YS02001770    1.00   0.00  0.04  0.00  0.96  0.00  0.00  0.00  0.04  0.00
  YS02001779YS02001774    1.00   0.00  0.00  0.00  1.00  0.00  0.00  0.00  0.22  0.00
  YS02001649YS02001757    1.00   0.00  0.00  0.00  1.00  0.00  0.00  0.00  0.17  0.00
  YS02001767YS02001765    1.00   0.00  0.00  0.00  1.00  0.00  0.00  0.00  0.01  0.00
  YS02006561YS02001783    1.00   0.05  0.00  0.00  0.48  0.47  0.00  0.00  0.54  0.00
  YS02001783YS02001784    1.00   0.00  0.05  0.00  0.95  0.00  0.00  0.00  0.01  0.00
  YS02001784YS02001785    1.00   0.00  0.00  0.00  1.00  0.00  0.00  0.00  0.21  0.00
  YS02001788YS02001790    1.00   0.00  0.00  0.00  0.54  0.46  0.00  0.00  0.48  0.00
  YS02001790YS02001791    1.00   0.00  0.00  0.00  0.50  0.50  0.00  0.00  0.34  0.00
  YS02001791YS02001793    1.00   0.00  0.00  0.00  0.51  0.49  0.00  0.00  0.01  0.00
  YS02001910YS02001907    1.00   0.00  0.00  0.00  0.99  0.00  0.00  0.00  0.13  0.00
  YS02001786YS02001788    1.00   0.00  0.00  0.00  0.52  0.48  0.00  0.00  0.00  0.00
  YS02001915YS02001910    1.00   0.00  0.00  0.00  0.99  0.01  0.00  0.00  0.19  0.00
  YS02001918YS02001915    1.00   0.00  0.00  0.00  1.00  0.00  0.00  0.00  0.56  0.00
  YS02001923YS02001920    1.00   0.00  0.00  0.00  1.00  0.00  0.00  0.00  0.83  0.00
  YS02001926YS02001923    1.00   0.00  0.03  0.00  0.18  0.00  0.80  0.00  0.00  0.00
  YS02001929YS02001926    1.00   0.00  0.04  0.00  0.96  0.00  0.00  0.00  0.75  0.00
  YS02001920YS02001918    1.00   0.00  0.00  0.00  1.00  0.00  0.00  0.00  0.00  0.00
  YS02001629YS02163301    1.00   0.04  0.00  0.00  0.95  0.00  0.00  0.00  0.00  0.00
  YS02001619YS02001622    1.00   0.04  0.00  0.00  0.96  0.00  0.00  0.00  0.00  0.00
  YS02001622YS02001625    1.00   0.04  0.00  0.00  0.96  0.00  0.00  0.00  0.08  0.00
  YS02001625YS02001629    1.00   0.04  0.02  0.00  0.93  0.00  0.02  0.00  0.00  0.00
  YS02163301YS02001633    1.00   0.00  0.04  0.00  0.96  0.00  0.00  0.00  0.00  0.00
  YS02163601YS02164001    1.00   0.00  0.03  0.00  0.97  0.00  0.00  0.00  0.00  0.00
  YS02164001YS02001641    1.00   0.00  0.03  0.00  0.97  0.00  0.00  0.00  0.06  0.00
  YS02001641YS02001644    1.00   0.00  0.00  0.00  1.00  0.00  0.00  0.00  0.00  0.00
  YS02001647YS02001649    1.00   0.00  0.05  0.00  0.95  0.00  0.00  0.00  0.01  0.00
  YS02006553YS02006556    1.00   0.00  0.00  0.00  1.00  0.00  0.00  0.00  0.03  0.00
  YS02006556YS02006558    1.00   0.00  0.00  0.00  1.00  0.00  0.00  0.00  0.00  0.00
  YSB6556YSB1171          1.00   0.02  0.02  0.00  0.96  0.00  0.00  0.00  0.00  0.00
  YS02001907YS02006553    1.00   0.00  0.00  0.00  1.00  0.00  0.00  0.00  0.00  0.00
  YS02006558YS02006561    1.00   0.05  0.00  0.00  0.21  0.74  0.00  0.00  0.45  0.00
  YS02001633YS02163601    1.00   0.00  0.00  0.00  1.00  0.00  0.00  0.00  0.16  0.00
  YS02001644YS02001647    1.00   0.00  0.05  0.00  0.95  0.00  0.00  0.00  0.00  0.00
  YS02001745YS02001748    1.00   0.00  0.00  0.00  0.89  0.01  0.00  0.10  0.05  0.00
  YS02001748YS02001751    1.00   0.00  0.00  0.00  0.97  0.03  0.00  0.00  0.15  0.00
  YS02001751YS02001754    1.00   0.00  0.00  0.00  0.94  0.00  0.00  0.06  0.02  0.00
  YS02001754YS02001757    1.00   0.00  0.00  0.00  1.00  0.00  0.00  0.00  0.21  0.00
  YS02001882YS02001884    1.00   0.04  0.00  0.00  0.96  0.00  0.00  0.00  0.00  0.00
  YS02001884YS02001887    1.00   0.03  0.01  0.00  0.97  0.00  0.00  0.00  0.00  0.00
  YS02001890YS02001895    1.00   0.00  0.04  0.00  0.95  0.00  0.00  0.00  0.00  0.00
  YS02001895YS02001898    1.00   0.05  0.00  0.00  0.95  0.00  0.01  0.00  0.00  0.00
  YS02001898YS02001901    1.00   0.05  0.00  0.00  0.95  0.00  0.00  0.00  0.03  0.00
  YS02001901YS02001904    1.00   0.05  0.00  0.00  0.95  0.00  0.00  0.00  0.00  0.00
  YS02001904YS02001907    1.00   0.00  0.04  0.00  0.95  0.00  0.00  0.00  0.00  0.00
  YS02001887YS02001890    1.00   0.00  0.00  0.00  0.99  0.00  0.01  0.00  0.00  0.00
  YS02001652YS02001649    1.00   0.00  0.00  0.00  1.00  0.00  0.00  0.00  0.19  0.00
  YS02001655YS02001652    1.00   0.00  0.00  0.00  0.94  0.00  0.00  0.05  0.03  0.00
  YS02001658YS02001655    1.00   0.00  0.04  0.00  0.93  0.03  0.00  0.00  0.13  0.00
  YS02001661YS02001658    1.00   0.04  0.00  0.00  0.89  0.07  0.00  0.00  0.09  0.00
  YS02001664YS02001661    1.00   0.04  0.00  0.00  0.86  0.11  0.00  0.00  0.23  0.00
  YSB1154YSB6556          1.00   0.04  0.00  0.00  0.96  0.00  0.00  0.00  0.02  0.00
  YSB1174YSB1171          1.00   0.02  0.01  0.00  0.97  0.00  0.00  0.00  0.00  0.00
  YSB1171HS02004479       1.00   0.02  0.00  0.00  0.98  0.00  0.00  0.01  0.11  0.00
  HS02004881HS02006253    1.00   0.02  0.00  0.00  0.86  0.01  0.00  0.10  0.69  0.00
  YS02001793JiankangQianchi    1.00   0.00  0.00  0.00  0.73  0.27  0.00  0.00  0.23  0.00
  YS02001757CaochengTiaoxuchi    1.00   0.00  0.07  0.00  0.87  0.06  0.00  0.00  0.00  0.00
  WSF200WS02003060        1.00   0.00  0.05  0.00  0.65  0.30  0.00  0.00  0.10  0.00
  1                       1.00   0.00  0.00  0.00  0.00  1.00  0.00  0.00  0.28  0.00
  2                       1.00   0.44  0.00  0.00  0.00  0.56  0.00  0.00  0.11  0.00
  3                       1.00   0.11  0.00  0.00  0.00  0.89  0.00  0.00  0.05  0.00
  4                       1.00   1.00  0.00  0.00  0.00  0.00  0.00  0.00  0.00  0.00
  
  
  *************************
  Conduit Surcharge Summary
  *************************
  
  ----------------------------------------------------------------------------
                                                           Hours        Hours 
                         --------- Hours Full --------   Above Full   Capacity
  Conduit                Both Ends  Upstream  Dnstream   Normal Flow   Limited
  ----------------------------------------------------------------------------
  WS02006229WS02006228        2.81      3.17      2.81      5.45         2.81
  WS02006256WS02006235        6.02      6.02      7.65      2.23         0.01
  WS02006253WS02006251        0.50      0.50      0.56      0.01         0.01
  WS02006252WS02006251        2.25      2.25      3.60      3.25         0.01
  WS02006251WS02006249        0.02      0.52      0.02      2.39         0.02
  WS02006249WS02006248        0.01      0.01      0.02      5.25         0.01
  WS02006248WS02006247        0.03      0.03      0.56      0.01         0.01
  WS02006247WS02006245        0.52      0.60      0.52      5.44         0.52
  WS02006245WS02006243        0.58      0.58      0.77      0.02         0.01
  WS02006243WS02006242        0.84      0.84      2.32      0.01         0.01
  WS02006242WS02006240        1.05      1.05      2.73      2.88         0.01
  WS02006240WS02006239        1.28      1.28      1.37      0.13         0.01
  WS02006239WS02006238        2.55      2.55      2.69      0.14         0.03
  WS02006238WS02006235        2.54      2.54      3.11      0.01         0.01
  WS02006235WS02006234        1.10      1.10      2.38      6.04         0.01
  WS02006234WS02006232        1.36      1.36      3.22      0.01         0.01
  WS02006232WS02006231        1.00      1.00      3.22      0.01         0.01
  WS02006231WS02006230        0.87      0.87      1.02      6.03         0.01
  WS02006230WS02006229        4.32      5.32      4.32      6.14         4.32
  WS02006228WS02006109        2.99      3.71      2.99      5.67         2.99
  WS02006116WS02004401        0.28      0.28      0.29      0.21         0.22
  WS02006115WS02006116        0.13      0.13      0.14      0.07         0.08
  WS02006112WS02006115        0.11      0.11      1.18      0.01         0.01
  WS02006111WS02006112        0.01      0.01      5.42      0.01         0.01
  WS02006110WS02006113        0.01      0.01      3.47      0.01         0.01
  WS02006109WS02006110        1.09      1.09      3.71      1.09         0.01
  WS02004411WS02004412        0.01      0.01      0.01      0.26         0.01
  WS02004401WS02004402        0.29      0.29      0.40      0.01         0.01
  WS02004410WS02004411        0.01      0.01      0.01      0.19         0.01
  WS02004409WS02004410        0.01      0.01      0.01      0.09         0.01
  WS02004406WS02004407        0.01      0.01      0.64      0.01         0.01
  WS02004405WS02004406        0.64      0.71      0.64      1.14         0.64
  WS02004404WS02004405        0.71      0.89      0.71      5.90         0.71
  WS02004403WS02004404        0.43      0.43      0.89      0.01         0.01
  WS02004402WS02004403        0.40      0.40      0.43      0.27         0.28
  WS02003072WS02003073        0.01      0.01      0.01      5.70         0.01
  HS02004876HS02004881        0.01      0.01      0.01      0.17         0.01
  HS02004785HS02004788        0.01      0.01      0.01      0.10         0.01
  HS02004480HS02004478        0.01      0.01      0.01      0.52         0.01
  YS02001759YS02001757        5.54      5.54      5.62      0.01         0.01
  YS02001762YS02001759        5.51      5.51      5.54      0.01         0.01
  YS02001765YS02001762        5.48      5.48      5.51      0.01         0.01
  YS02001770YS02001767        5.46      5.46      5.46      0.37         0.91
  YS02001774YS02001770        5.36      5.36      5.50      0.01         0.01
  YS02001779YS02001774        5.26      5.26      5.50      0.01         0.01
  YS02001649YS02001757        5.52      5.52      5.62      0.01         0.01
  YS02001767YS02001765        5.46      5.46      5.48      0.01         0.01
  YS02006561YS02001783        0.89      0.89      1.38      0.01         0.01
  YS02001783YS02001784        1.36      1.38      1.42      1.37         1.16
  YS02001784YS02001785        1.36      1.42      1.36      2.22         1.36
  YS02001788YS02001790        1.34      1.34      2.74      0.01         0.01
  YS02001790YS02001791        2.74      2.74      2.86      0.73         0.73
  YS02001791YS02001793        2.86      2.86      3.10      0.01         0.01
  YS02001910YS02001907        1.20      1.20      1.67      0.01         0.01
  YS02001786YS02001788        1.34      1.36      1.34      1.88         1.34
  YS02001915YS02001910        1.00      1.00      1.20      0.01         0.01
  YS02001918YS02001915        0.76      0.76      1.00      0.01         0.01
  YS02001923YS02001920        0.59      0.59      0.80      0.01         0.01
  YS02001926YS02001923        0.01      0.01      0.01      0.01         0.01
  YS02001929YS02001926        0.01      0.01      0.01      0.01         0.01
  YS02001920YS02001918        0.76      0.76      0.80      0.01         0.01
  YS02001629YS02163301        5.39      5.39      5.45      0.01         0.01
  YS02001619YS02001622        5.11      5.11      5.13      0.01         0.01
  YS02001622YS02001625        5.13      5.13      5.28      0.01         0.01
  YS02001625YS02001629        5.12      5.12      5.28      0.01         0.01
  YS02163301YS02001633        5.45      5.45      5.49      0.01         0.01
  YS02163601YS02164001        5.49      5.49      5.52      0.01         0.01
  YS02164001YS02001641        5.49      5.49      5.50      0.01         0.02
  YS02001641YS02001644        5.50      5.50      5.50      1.48         1.55
  YS02001647YS02001649        5.28      5.28      5.52      0.01         0.01
  YS02006553YS02006556        1.42      1.42      1.72      0.01         0.01
  YS02006556YS02006558        1.56      1.56      1.79      0.01         0.01
  YS02001907YS02006553        2.24      2.24      2.45      0.01         0.01
  YS02006558YS02006561        1.07      1.38      1.07      2.09         1.07
  YS02001633YS02163601        5.48      5.48      5.52      0.01         0.01
  YS02001644YS02001647        5.28      5.28      5.50      0.01         0.01
  YS02001745YS02001748        0.01      0.01      5.00      0.01         0.01
  YS02001748YS02001751        5.03      5.03      5.09      0.01         0.01
  YS02001751YS02001754        5.09      5.09      5.26      0.01         0.01
  YS02001754YS02001757        5.28      5.28      5.62      0.01         0.01
  YS02001882YS02001884        1.00      1.00      1.03      0.01         0.01
  YS02001884YS02001887        1.09      1.09      1.12      0.01         0.01
  YS02001890YS02001895        0.98      0.98      1.22      0.01         0.01
  YS02001895YS02001898        0.96      0.96      0.98      0.01         0.01
  YS02001898YS02001901        0.99      0.99      1.08      0.01         0.01
  YS02001901YS02001904        1.06      1.06      1.08      0.01         0.01
  YS02001904YS02001907        1.06      1.06      1.75      0.01         0.01
  YS02001887YS02001890        1.15      1.15      1.18      0.07         0.01
  YS02001652YS02001649        5.29      5.29      5.52      0.01         0.01
  YS02001655YS02001652        5.12      5.12      5.28      0.01         0.01
  YS02001658YS02001655        5.02      5.02      5.12      0.01         0.01
  YS02001661YS02001658        0.22      0.22      5.02      0.01         0.01
  YS02001664YS02001661        0.01      0.01      1.14      0.01         0.01
  YS02001793JiankangQianchi        3.06      3.06      4.21      0.01         0.01
  YS02001757CaochengTiaoxuchi        4.77      4.77      5.62      0.01         0.01
  
  
  ***************
  Pumping Summary
  ***************
  
  ---------------------------------------------------------------------------------------------------------
                                                  Min       Avg       Max     Total     Power    % Time Off
                        Percent   Number of      Flow      Flow      Flow    Volume     Usage    Pump Curve
  Pump                 Utilized   Start-Ups       LPS       LPS       LPS  10^6 ltr     Kw-hr    Low   High
  ---------------------------------------------------------------------------------------------------------
  CC-Pump-1               70.16           4      0.00    153.68    200.00     3.082      5.17    0.0   12.0
  CC-Pump-2               63.82           5      0.00    162.08    200.00     2.940      4.97    0.0    9.9
  JK-Pump-1               85.09           7      0.00    199.27    300.00     3.651     36.96    0.0    0.0
  JK-Pump-2               78.72           6      0.00    166.29    300.00     2.768     28.49    0.0    0.0
  XR-Pump-1               95.74           3      0.00     74.00     95.00     1.967     12.01    0.0    0.0
  XR-Pump-2               78.71           9      0.00     60.89     95.00     1.339      7.74    0.0    0.0
  XR-Pump-3               78.70           9      0.00     65.85     95.00     1.510      8.86    0.0    0.0
  XR-Pump-4               87.22           7      0.00     73.91     95.00     1.738     10.18    0.0    0.0
  

  Analysis begun on:  Sat Dec 25 11:43:38 2021
  Analysis ended on:  Sat Dec 25 11:43:42 2021
  Total elapsed time: 00:00:04