
  EPA STORM WATER MANAGEMENT MODEL - VERSION 5.1 (Build 5.3.0.dev0)
  --------------------------------------------------------------

  WARNING 04: minimum elevation drop used for Conduit WS02004404WS02004405
  WARNING 03: negative offset ignored for Link YS02001904YS02001907
  
  *********************************************************
  NOTE: The summary statistics displayed in this report are
  based on results found at every computational time step,  
  not just on results from each reporting time step.
  *********************************************************
  
  ****************
  Analysis Options
  ****************
  Flow Units ............... LPS
  Process Models:
    Rainfall/Runoff ........ YES
    RDII ................... NO
    Snowmelt ............... NO
    Groundwater ............ NO
    Flow Routing ........... YES
    Ponding Allowed ........ NO
    Water Quality .......... NO
  Infiltration Method ...... HORTON
  Flow Routing Method ...... DYNWAVE
  Surcharge Method ......... EXTRAN
  Starting Date ............ 08/28/2015 08:00:00
  Ending Date .............. 08/28/2015 15:50:00
  Antecedent Dry Days ...... 8.0
  Report Time Step ......... 00:01:00
  Wet Time Step ............ 00:01:00
  Dry Time Step ............ 00:01:00
  Routing Time Step ........ 5.00 sec
  Variable Time Step ....... YES
  Maximum Trials ........... 8
  Number of Threads ........ 4
  Head Tolerance ........... 0.001500 m
  
  
  **************************        Volume         Depth
  Runoff Quantity Continuity     hectare-m            mm
  **************************     ---------       -------
  Total Precipitation ......        10.887        23.836
  Evaporation Loss .........         0.000         0.000
  Infiltration Loss ........         2.344         5.132
  Surface Runoff ...........         7.303        15.990
  Final Storage ............         1.241         2.717
  Continuity Error (%) .....        -0.012
  
  
  **************************        Volume        Volume
  Flow Routing Continuity        hectare-m      10^6 ltr
  **************************     ---------     ---------
  Dry Weather Inflow .......         0.616         6.165
  Wet Weather Inflow .......         7.302        73.016
  Groundwater Inflow .......         0.000         0.000
  RDII Inflow ..............         0.000         0.000
  External Inflow ..........         0.102         1.024
  External Outflow .........         2.527        25.269
  Flooding Loss ............         4.964        49.642
  Evaporation Loss .........         0.000         0.000
  Exfiltration Loss ........         0.000         0.000
  Initial Stored Volume ....         0.076         0.761
  Final Stored Volume ......         0.647         6.470
  Continuity Error (%) .....        -0.514
  
  
  *************************
  Highest Continuity Errors
  *************************
  Node YS02001884 (12.25%)
  Node HS02004842 (8.73%)
  Node JK-storage (-2.70%)
  Node HS02004817 (1.69%)
  Node YSB1171 (1.47%)
  
  
  ***************************
  Time-Step Critical Elements
  ***************************
  Link 3 (60.53%)
  Link WS02006252WS02006251 (33.48%)
  Link WS02006238WS02006235 (1.69%)
  
  
  ********************************
  Highest Flow Instability Indexes
  ********************************
  Link WS02006113WS02006111 (31)
  Link YS02163601YS02164001 (25)
  Link WS02006111WS02006112 (25)
  Link YS02001629YS02163301 (25)
  Link YS02163301YS02001633 (25)
  
  
  *************************
  Routing Time Step Summary
  *************************
  Minimum Time Step           :     0.03 sec
  Average Time Step           :     0.72 sec
  Maximum Time Step           :     5.00 sec
  Percent in Steady State     :    -0.00
  Average Iterations per Step :     3.58
  Percent Not Converging      :    11.15
  
  
  ***************************
  Subcatchment Runoff Summary
  ***************************
  
  ------------------------------------------------------------------------------------------------------------------------------
                            Total      Total      Total      Total     Imperv       Perv      Total       Total     Peak  Runoff
                           Precip      Runon       Evap      Infil     Runoff     Runoff     Runoff      Runoff   Runoff   Coeff
  Subcatchment                 mm         mm         mm         mm         mm         mm         mm    10^6 ltr      LPS
  ------------------------------------------------------------------------------------------------------------------------------
  sub0                      23.84       0.00       0.00       1.03      20.90       0.64      21.54        0.02     4.74   0.904
  sub1                      23.84       0.00       0.00       1.74      19.95       0.88      20.83        0.14    30.53   0.874
  sub2                      23.84       0.00       0.00       6.87      14.10       1.95      16.05        0.15    28.29   0.673
  sub3                      23.84       0.00       0.00       7.14      14.06       1.68      15.74        0.35    61.76   0.660
  sub4                      23.84       0.00       0.00       1.87      19.78       0.75      20.54        0.43    72.83   0.862
  sub5                      23.84       0.00       0.00       1.08      20.85       0.59      21.44        0.24    54.28   0.899
  sub7                      23.84       0.00       0.00       1.37      20.44       0.77      21.21        0.07    17.57   0.890
  sub8                      23.84       0.00       0.00       1.38      20.42       0.76      21.19        0.14    32.08   0.889
  sub9                      23.84       0.00       0.00       1.39      20.42       0.76      21.18        0.10    23.95   0.889
  sub10                     23.84       0.00       0.00       1.24      20.63       0.67      21.30        0.23    53.40   0.894
  sub11                     23.84       0.00       0.00       1.22      20.65       0.69      21.34        0.25    59.71   0.895
  sub12                     23.84       0.00       0.00       1.98      19.55       1.11      20.66        0.18    46.17   0.867
  sub14                     23.84       0.00       0.00       1.39      20.42       0.76      21.18        0.20    47.08   0.888
  sub15                     23.84       0.00       0.00       5.16      15.70       1.99      17.70        0.30    64.58   0.742
  sub16                     23.84       0.00       0.00       5.46      15.05       2.40      17.45        0.18    41.69   0.732
  sub17                     23.84       0.00       0.00       5.32      15.27       2.31      17.58        0.15    34.22   0.738
  sub22                     23.84       0.00       0.00       7.63      12.80       2.62      15.42        0.97   202.91   0.647
  sub23                     23.84       0.00       0.00       6.37      14.15       2.45      16.60        0.79   171.10   0.696
  sub60                     23.84       0.00       0.00       2.46      17.68       0.40      18.08        5.48   635.50   0.759
  sub61                     23.84       0.00       0.00       3.48      17.44       0.57      18.00        5.55   687.97   0.755
  sub62                     23.84       0.00       0.00       1.52      19.11       0.39      19.50        5.99   726.55   0.818
  sub63                     23.84       0.00       0.00       6.22      15.11       0.70      15.81        4.78   606.27   0.663
  sub64                     23.84       0.00       0.00       3.15      17.01       0.42      17.43        5.30   611.50   0.731
  sub65                     23.84       0.00       0.00       2.70      17.34       0.40      17.73        5.45   625.37   0.744
  sub66                     23.84       0.00       0.00       6.42      14.44       0.49      14.93        4.58   541.58   0.626
  sub67                     23.84       0.00       0.00       1.46      19.71       0.45      20.16        6.22   787.40   0.846
  sub68                     23.84       0.00       0.00       2.78      18.22       0.56      18.78        5.78   724.10   0.788
  sub69                     23.84       0.00       0.00       2.86      18.50       0.72      19.22        4.49   586.55   0.806
  sub70                     23.84      19.62       0.00       9.95      26.14       3.78      29.92        6.85   801.71   0.689
  sub71                     23.84       0.00       0.00       1.54      18.81       0.36      19.18        4.53   536.91   0.805
  sub72                     23.84       0.00       0.00       1.45      16.32       0.22      16.55        3.37   330.66   0.694
  sub73                     23.84      29.13       0.00       9.95      31.58       5.28      36.86        8.66   884.85   0.696
  sub74                     23.84       0.00       0.00      17.30       5.48       0.57       6.05        2.42   323.16   0.254
  
  
  ******************
  Node Depth Summary
  ******************
  
  ---------------------------------------------------------------------------------
                                 Average  Maximum  Maximum  Time of Max    Reported
                                   Depth    Depth      HGL   Occurrence   Max Depth
  Node                 Type       Meters   Meters   Meters  days hr:min      Meters
  ---------------------------------------------------------------------------------
  WS02001211           JUNCTION     0.70     0.79     5.63     0  02:21        0.79
  WS02001212           JUNCTION     0.42     0.52     5.58     0  02:21        0.52
  WS02001213           JUNCTION     0.67     0.79     5.55     0  01:45        0.79
  WS02003069           JUNCTION     0.49     0.66     5.25     0  01:45        0.66
  WS02003072           JUNCTION     0.55     0.71     5.08     0  01:46        0.71
  WS02003073           JUNCTION     0.34     0.45     4.51     0  01:46        0.45
  WS02003060           JUNCTION     0.44     0.59     5.52     0  01:45        0.59
  WS02003066           JUNCTION     0.26     0.37     5.93     0  01:42        0.37
  WS02003059           JUNCTION     0.72     0.85     5.54     0  01:45        0.85
  WS02003067           JUNCTION     0.62     0.80     6.12     0  01:39        0.80
  WS02004401           JUNCTION     0.77     1.24     7.24     0  01:33        1.18
  WS02004402           JUNCTION     0.79     1.23     7.19     0  01:33        1.17
  WS02004403           JUNCTION     0.80     1.22     7.15     0  01:33        1.15
  WS02004404           JUNCTION     0.87     1.28     7.13     0  01:33        1.20
  WS02004406           JUNCTION     0.87     1.18     7.01     0  01:33        1.15
  WS02004409           JUNCTION     0.57     0.90     6.67     0  01:39        0.90
  WS02004410           JUNCTION     0.58     0.90     6.62     0  01:39        0.90
  WS02004411           JUNCTION     0.59     0.88     6.56     0  01:39        0.88
  WS02004412           JUNCTION     0.60     0.87     6.51     0  01:39        0.87
  WS02004413           JUNCTION     0.76     1.00     6.47     0  01:39        1.00
  WS02004405           JUNCTION     0.87     1.26     7.11     0  01:33        1.18
  WS02006109           JUNCTION     0.86     1.38     7.99     0  01:36        1.37
  WS02006110           JUNCTION     0.83     1.21     7.79     0  01:36        1.19
  WS02006111           JUNCTION     0.30     0.74     7.45     0  01:36        0.74
  WS02006112           JUNCTION     0.96     1.48     7.36     0  01:35        1.47
  WS02006113           JUNCTION     0.40     0.71     7.61     0  01:36        0.71
  WS02006115           JUNCTION     0.67     1.16     7.30     0  01:35        1.15
  WS02006116           JUNCTION     0.75     1.24     7.28     0  01:33        1.20
  WS02006230           JUNCTION     0.87     1.52     8.26     0  01:36        1.51
  WS02006231           JUNCTION     0.60     1.62     8.74     0  01:29        1.14
  WS02006232           JUNCTION     0.72     1.40     8.44     0  01:29        1.22
  WS02006234           JUNCTION     0.64     1.17     8.33     0  01:32        1.10
  WS02006235           JUNCTION     0.66     1.18     8.35     0  01:32        1.10
  WS02006238           JUNCTION     0.68     1.21     8.35     0  01:32        1.12
  WS02006240           JUNCTION     0.57     1.36     8.65     0  01:30        0.97
  WS02006242           JUNCTION     0.62     1.55     8.82     0  01:30        1.00
  WS02006243           JUNCTION     0.50     1.16     8.58     0  01:32        0.85
  WS02006245           JUNCTION     0.47     1.12     8.60     0  01:32        0.79
  WS02006247           JUNCTION     0.48     1.47     8.97     0  01:32        0.78
  WS02006248           JUNCTION     0.42     0.70     8.29     0  03:00        0.70
  WS02006249           JUNCTION     0.44     0.70     8.30     0  03:00        0.70
  WS02006239           JUNCTION     0.64     1.21     8.42     0  01:32        1.05
  WS02006251           JUNCTION     0.43     0.78     8.45     0  03:00        0.78
  WS02006252           JUNCTION     0.34     0.59     8.84     0  06:22        0.59
  WS02006253           JUNCTION     0.46     0.82     8.46     0  03:00        0.81
  WS02006256           JUNCTION     1.08     1.26     8.19     0  01:37        1.26
  WS02004138           JUNCTION     0.16     0.19     7.44     0  00:40        0.19
  WS02004407           JUNCTION     0.25     0.38     6.70     0  01:37        0.38
  WS02006228           JUNCTION     0.89     1.52     8.17     0  01:36        1.50
  WS02006229           JUNCTION     0.88     1.56     8.26     0  01:36        1.56
  WS02006280           JUNCTION     0.10     0.29     8.56     0  01:36        0.29
  WS02006284           JUNCTION     0.42     0.68     9.08     0  01:36        0.68
  WS02006287           JUNCTION     0.15     0.43     9.38     0  01:35        0.43
  WSF200               JUNCTION     0.25     0.41     5.65     0  01:44        0.41
  HS02004901           JUNCTION     0.17     0.40    10.23     0  01:33        0.40
  HS02004881           JUNCTION     0.02     0.06     9.09     0  01:36        0.06
  HS02004876           JUNCTION     0.06     0.18     9.21     0  01:36        0.18
  HS02004870           JUNCTION     0.03     0.11     9.39     0  01:36        0.11
  HS02004862           JUNCTION     0.04     0.12     9.50     0  01:37        0.12
  HS02004856           JUNCTION     0.09     0.16     9.59     0  01:37        0.16
  HS02004852           JUNCTION     0.02     0.09     9.60     0  01:37        0.09
  HS02004848           JUNCTION     0.02     0.08     9.68     0  01:37        0.08
  HS02004842           JUNCTION     0.35     0.41     9.68     0  01:37        0.41
  HS02004837           JUNCTION     0.04     0.10     9.68     0  01:37        0.10
  HS02004830           JUNCTION     0.05     0.13     9.60     0  01:36        0.13
  HS02004824           JUNCTION     0.04     0.17     9.57     0  01:35        0.17
  HS02004817           JUNCTION     0.49     0.74     9.59     0  01:35        0.73
  HS02004807           JUNCTION     0.17     0.41     9.58     0  01:36        0.41
  HS02004802           JUNCTION     0.21     0.44     9.56     0  01:36        0.44
  HS02004799           JUNCTION     0.18     0.51     9.72     0  01:34        0.51
  HS02004792           JUNCTION     0.07     0.24     9.76     0  01:33        0.24
  HS02004788           JUNCTION     0.05     0.17    10.07     0  01:34        0.17
  HS02004785           JUNCTION     0.08     0.27    10.17     0  01:33        0.27
  HS02004777           JUNCTION     0.19     0.41    10.21     0  01:33        0.41
  HS02004770           JUNCTION     0.16     0.39    10.22     0  01:33        0.39
  HS02004480           JUNCTION     0.14     0.42     9.66     0  01:34        0.42
  HS02004479           JUNCTION     0.17     0.46     9.66     0  01:34        0.46
  HS02004478           JUNCTION     0.10     0.32     9.54     0  01:36        0.32
  YS02001745           JUNCTION     0.82     1.03     8.55     0  03:01        1.03
  YS02001748           JUNCTION     1.23     2.27     9.35     0  01:32        1.45
  YS02001751           JUNCTION     1.42     2.14     9.02     0  01:32        1.63
  YS02001754           JUNCTION     1.67     2.09     8.70     0  01:32        1.88
  YS02001762           JUNCTION     1.87     2.07     8.47     0  03:01        2.06
  YS02001765           JUNCTION     1.82     2.01     8.46     0  03:01        2.01
  YS02001767           JUNCTION     1.78     1.97     8.45     0  03:01        1.97
  YS02001770           JUNCTION     1.78     1.95     8.44     0  01:31        1.95
  YS02001774           JUNCTION     1.84     2.02     8.44     0  01:32        1.99
  YS02001779           JUNCTION     1.57     1.68     8.37     0  01:30        1.68
  YS02001882           JUNCTION     0.89     1.66     8.38     0  01:37        1.63
  YS02001884           JUNCTION     0.99     1.76     8.37     0  01:37        1.74
  YS02001759           JUNCTION     1.90     2.11     8.47     0  03:01        2.11
  YS02001887           JUNCTION     1.07     1.82     8.36     0  01:56        1.82
  YS02001890           JUNCTION     1.09     1.81     8.32     0  01:37        1.81
  YS02001898           JUNCTION     0.85     1.58     8.31     0  01:37        1.56
  YS02001901           JUNCTION     0.97     1.69     8.29     0  01:37        1.67
  YS02001904           JUNCTION     0.94     1.65     8.28     0  01:37        1.63
  YS02001907           JUNCTION     1.27     1.96     8.25     0  01:37        1.96
  YS02001910           JUNCTION     1.07     1.91     8.42     0  01:37        1.80
  YS02001915           JUNCTION     0.88     1.86     8.57     0  01:37        1.62
  YS02001918           JUNCTION     0.60     1.81     8.88     0  01:37        1.32
  YS02001619           JUNCTION     1.36     1.61     8.54     0  01:31        1.61
  YS02001629           JUNCTION     1.71     1.85     8.40     0  01:31        1.85
  YS02001641           JUNCTION     1.81     1.95     8.39     0  01:33        1.94
  YS02001644           JUNCTION     1.81     1.92     8.35     0  01:32        1.92
  YS02001652           JUNCTION     1.68     2.16     8.76     0  01:33        1.97
  YS02001655           JUNCTION     1.44     2.20     9.05     0  01:32        1.84
  YS02001920           JUNCTION     0.69     1.69     8.70     0  01:39        1.40
  YS02001923           JUNCTION     0.50     1.50     8.76     0  01:39        1.18
  YS02001926           JUNCTION     0.48     1.31     8.75     0  01:39        1.03
  YS02001929           JUNCTION     0.32     0.89     8.59     0  01:39        0.86
  YS02001658           JUNCTION     1.17     2.30     9.44     0  01:32        1.67
  YS02001661           JUNCTION     0.93     2.46     9.86     0  01:33        1.30
  YS02001664           JUNCTION     0.43     0.69     8.62     0  01:33        0.68
  YS02001622           JUNCTION     1.38     1.62     8.52     0  01:31        1.60
  YS02001633           JUNCTION     1.81     1.98     8.43     0  01:33        1.96
  YS02001649           JUNCTION     1.87     2.05     8.44     0  01:32        2.05
  YS02001757           JUNCTION     2.00     2.21     8.47     0  01:32        2.20
  YS02001895           JUNCTION     0.85     1.57     8.32     0  01:37        1.56
  YS02001625           JUNCTION     1.66     1.78     8.38     0  01:31        1.78
  YS02163301           JUNCTION     1.75     1.90     8.42     0  01:33        1.90
  YS02163601           JUNCTION     1.85     2.02     8.42     0  01:33        2.01
  YS02164001           JUNCTION     1.79     1.95     8.41     0  01:33        1.94
  YS02001647           JUNCTION     1.65     1.80     8.41     0  01:43        1.79
  YSB1154              JUNCTION     0.31     0.61     9.67     0  01:34        0.61
  YSB6556              JUNCTION     0.21     0.50     9.67     0  01:34        0.50
  YSB1174              JUNCTION     0.26     0.56     9.67     0  01:34        0.56
  YSB1171              JUNCTION     0.47     0.76     9.67     0  01:34        0.76
  YS02006553           JUNCTION     1.27     2.16     8.44     0  01:44        1.97
  YS02006561           JUNCTION     0.56     1.75     8.41     0  01:44        1.09
  YS02006556           JUNCTION     1.24     2.37     8.68     0  01:44        1.93
  YS02006558           JUNCTION     1.28     2.50     8.77     0  01:44        1.98
  YS02001783           JUNCTION     0.85     2.27     8.41     0  01:44        1.48
  YS02001784           JUNCTION     0.85     2.29     8.36     0  01:44        1.42
  YS02001786           JUNCTION     0.76     2.23     8.26     0  01:44        1.27
  YS02001788           JUNCTION     0.68     2.28     8.26     0  01:44        1.13
  YS02001790           JUNCTION     0.82     1.96     7.60     0  01:44        1.30
  YS02001791           JUNCTION     0.81     1.79     7.26     0  01:44        1.27
  YS02001793           JUNCTION     1.14     1.89     6.72     0  01:44        1.80
  WS02004139           JUNCTION     0.64     0.74     5.65     0  03:35        0.74
  WSC                  OUTFALL      0.33     0.44     1.11     0  01:47        0.44
  3                    OUTFALL      0.13     0.30     6.30     0  01:34        0.30
  4                    OUTFALL      0.05     0.20     7.20     0  03:00        0.20
  5                    OUTFALL      0.00     0.00     5.00     0  00:00        0.00
  JK-storage           STORAGE      4.28     5.80     6.60     0  01:45        5.80
  CC-storage           STORAGE      1.21     1.47     8.47     0  02:35        1.47
  XR-storage           STORAGE      7.32     7.72     5.72     0  01:48        7.72
  
  
  *******************
  Node Inflow Summary
  *******************
  
  -------------------------------------------------------------------------------------------------
                                  Maximum  Maximum                  Lateral       Total        Flow
                                  Lateral    Total  Time of Max      Inflow      Inflow     Balance
                                   Inflow   Inflow   Occurrence      Volume      Volume       Error
  Node                 Type           LPS      LPS  days hr:min    10^6 ltr    10^6 ltr     Percent
  -------------------------------------------------------------------------------------------------
  WS02001211           JUNCTION      7.35   388.19     0  03:40       0.207        7.67       0.391
  WS02001212           JUNCTION      0.00   388.84     0  03:40           0        7.64       0.268
  WS02001213           JUNCTION      0.00   389.54     0  03:40           0        7.62       0.253
  WS02003069           JUNCTION      0.32  1170.20     0  01:45     0.00902          18       0.162
  WS02003072           JUNCTION      0.00  1170.18     0  01:46           0          18       0.201
  WS02003073           JUNCTION      1.82  1172.08     0  01:46      0.0514          18       0.228
  WS02003060           JUNCTION     16.53  1169.85     0  01:45       0.466        18.1       0.152
  WS02003066           JUNCTION      0.00   870.68     0  01:40           0          10       0.046
  WS02003059           JUNCTION      0.00   390.76     0  03:41           0        7.61       0.455
  WS02003067           JUNCTION      0.00   870.59     0  01:40           0          10       0.096
  WS02004401           JUNCTION      0.00   874.37     0  01:37           0        10.3       0.202
  WS02004402           JUNCTION      0.00   874.33     0  01:37           0        10.3       0.191
  WS02004403           JUNCTION      0.00   874.43     0  01:37           0        10.2       0.174
  WS02004404           JUNCTION      0.16   874.72     0  01:37     0.00457        10.2       0.132
  WS02004406           JUNCTION      0.00   874.79     0  01:37           0        10.2       0.321
  WS02004409           JUNCTION      0.00   874.32     0  01:37           0        10.2       0.166
  WS02004410           JUNCTION      0.00   871.09     0  01:38           0        10.1       0.188
  WS02004411           JUNCTION      0.00   870.59     0  01:39           0        10.1       0.193
  WS02004412           JUNCTION      0.00   870.46     0  01:39           0        10.1       0.208
  WS02004413           JUNCTION      0.00   870.52     0  01:39           0        10.1       0.308
  WS02004405           JUNCTION      0.04   874.79     0  01:37     0.00107        10.2       0.198
  WS02006109           JUNCTION      1.23   848.89     0  01:35      0.0347        10.2       0.168
  WS02006110           JUNCTION      0.00   848.87     0  01:35           0        10.2       0.189
  WS02006111           JUNCTION      0.00   841.17     0  01:36           0        10.2       0.035
  WS02006112           JUNCTION     34.22   875.25     0  01:37       0.151        10.3       0.275
  WS02006113           JUNCTION      0.00   848.87     0  01:35           0        10.2       0.088
  WS02006115           JUNCTION      0.00   875.14     0  01:37           0        10.3       0.194
  WS02006116           JUNCTION      0.00   874.54     0  01:37           0        10.3       0.170
  WS02006230           JUNCTION     10.28   397.12     0  07:28        0.29        6.18       0.158
  WS02006231           JUNCTION      0.00   387.64     0  07:25           0        5.88       0.164
  WS02006232           JUNCTION      0.00   388.01     0  05:52           0        5.88       0.240
  WS02006234           JUNCTION      0.00   389.87     0  05:53           0        5.87       0.119
  WS02006235           JUNCTION      0.00   393.12     0  05:52           0        6.04       0.137
  WS02006238           JUNCTION      0.00   309.15     0  06:26           0        4.23       0.155
  WS02006240           JUNCTION      0.00   327.18     0  06:22           0        4.19       0.228
  WS02006242           JUNCTION      0.00   336.33     0  06:21           0        4.19       0.328
  WS02006243           JUNCTION      0.00   344.37     0  06:21           0        4.17      -0.046
  WS02006245           JUNCTION      0.00   347.55     0  06:21           0        4.18       0.297
  WS02006247           JUNCTION      0.00   351.29     0  06:21           0        4.18       0.138
  WS02006248           JUNCTION      0.00   355.44     0  06:21           0        4.18       0.047
  WS02006249           JUNCTION      0.00   524.60     0  02:00           0        5.46       0.244
  WS02006239           JUNCTION      0.00   316.90     0  06:22           0         4.2       0.167
  WS02006251           JUNCTION      0.08   524.89     0  02:00     0.00217        5.49       0.147
  WS02006252           JUNCTION      0.00   400.00     0  02:00           0        4.63       0.009
  WS02006253           JUNCTION      4.74   178.63     0  01:36      0.0174       0.861       0.408
  WS02006256           JUNCTION      0.00   649.97     0  01:37           0        7.88       0.031
  WS02004138           JUNCTION      0.00   380.00     0  00:40           0         7.5       0.062
  WS02004407           JUNCTION      0.00   875.36     0  01:36           0        10.2       0.071
  WS02006228           JUNCTION      0.00   847.66     0  01:35           0        10.2       0.133
  WS02006229           JUNCTION      0.00   854.11     0  01:34           0        10.3       0.140
  WS02006280           JUNCTION      0.00   821.20     0  01:36           0        4.12       0.004
  WS02006284           JUNCTION      0.10   821.16     0  01:36      0.0027        4.12       0.021
  WS02006287           JUNCTION      0.00   821.03     0  01:36           0        4.12       0.018
  WSF200               JUNCTION      0.00   870.58     0  01:40           0          10       0.047
  HS02004901           JUNCTION     41.69    41.69     0  01:31       0.183       0.183       0.971
  HS02004881           JUNCTION     17.57   174.51     0  01:36      0.0714       0.818       0.067
  HS02004876           JUNCTION     30.53   157.86     0  01:36       0.138       0.747       0.075
  HS02004870           JUNCTION     32.08   127.64     0  01:36       0.135       0.609       0.018
  HS02004862           JUNCTION     28.49    96.84     0  01:37       0.155       0.474       0.037
  HS02004856           JUNCTION     23.95    68.40     0  01:36       0.102        0.32       0.453
  HS02004852           JUNCTION      0.00    45.39     0  01:37           0       0.218       0.028
  HS02004848           JUNCTION     61.76    61.76     0  01:40       0.354       0.354       0.013
  HS02004842           JUNCTION      0.00    18.52     0  01:51           0       0.149       9.568
  HS02004837           JUNCTION     59.75    74.34     0  01:37       0.414        0.55       0.147
  HS02004830           JUNCTION      0.15    74.45     0  01:37     0.00423        0.54       0.229
  HS02004824           JUNCTION     72.88   147.26     0  01:40        0.43       0.969       0.056
  HS02004817           JUNCTION      0.60   150.91     0  01:41      0.0169       0.985       1.720
  HS02004807           JUNCTION     59.71   204.87     0  01:38       0.248        1.22       0.359
  HS02004802           JUNCTION      0.00   204.81     0  01:39           0        1.22       0.325
  HS02004799           JUNCTION     47.08   525.51     0  01:33       0.202         2.5       0.119
  HS02004792           JUNCTION    203.19   478.62     0  01:33       0.982         2.3       0.017
  HS02004788           JUNCTION     66.25   277.11     0  01:34       0.351        1.32       0.029
  HS02004785           JUNCTION      0.15   210.94     0  01:33     0.00423       0.971       0.053
  HS02004777           JUNCTION      0.03   211.16     0  01:32    0.000846       0.971       0.540
  HS02004770           JUNCTION    171.10   212.05     0  01:32       0.791       0.972       0.316
  HS02004480           JUNCTION      0.00   623.61     0  01:34           0        2.92       0.035
  HS02004479           JUNCTION      0.00    98.35     0  01:34           0       0.432       0.172
  HS02004478           JUNCTION      0.00   821.00     0  01:35           0        4.12       0.008
  YS02001745           JUNCTION    635.50   635.50     0  03:01        5.48        5.48       0.202
  YS02001748           JUNCTION      0.04   636.34     0  03:01     0.00127        5.47       0.411
  YS02001751           JUNCTION      0.01   636.38     0  03:01     0.00031        5.45       0.442
  YS02001754           JUNCTION      0.26   636.69     0  03:01     0.00733        5.44       0.445
  YS02001762           JUNCTION      0.00   393.61     0  01:40           0        2.89       0.731
  YS02001765           JUNCTION      0.00   393.44     0  01:40           0        2.88       0.846
  YS02001767           JUNCTION      0.54   393.69     0  01:40      0.0151        2.91       1.236
  YS02001770           JUNCTION    726.70  1039.39     0  03:01           6        7.52       0.416
  YS02001774           JUNCTION      0.00   851.17     0  02:55           0        5.92       0.420
  YS02001779           JUNCTION      0.01   851.17     0  02:55    0.000141        5.89       0.260
  YS02001882           JUNCTION      0.00    41.37     0  01:34           0      0.0179      15.204
  YS02001884           JUNCTION      0.00    57.28     0  01:32           0      0.0534      13.964
  YS02001759           JUNCTION    688.01   890.55     0  01:46        5.55        6.89       0.329
  YS02001887           JUNCTION    787.85   787.85     0  03:01        6.23        6.26       0.143
  YS02001890           JUNCTION      0.00   787.86     0  03:01           0        6.22       0.156
  YS02001898           JUNCTION      0.00   570.07     0  01:38           0        5.24       0.053
  YS02001901           JUNCTION      0.00   570.64     0  01:38           0        5.24       0.142
  YS02001904           JUNCTION      0.00   570.76     0  01:38           0        5.24       0.124
  YS02001907           JUNCTION      0.00  1384.50     0  03:01           0        13.2       0.188
  YS02001910           JUNCTION      0.00   868.05     0  03:01           0        7.96       0.155
  YS02001915           JUNCTION    536.93   868.01     0  03:01        4.53        8.02       0.081
  YS02001918           JUNCTION      0.00   357.09     0  01:39           0        3.52       0.050
  YS02001619           JUNCTION    541.58   541.58     0  03:01        4.58        4.58       0.266
  YS02001629           JUNCTION      0.00   382.24     0  01:31           0        1.87       1.523
  YS02001641           JUNCTION      0.00   452.11     0  01:32           0        5.95       0.352
  YS02001644           JUNCTION    611.54  1882.09     0  03:01         5.3        18.5       0.139
  YS02001652           JUNCTION      0.00   607.55     0  03:01           0        4.73       0.479
  YS02001655           JUNCTION      0.15   607.54     0  03:01     0.00434        4.76       0.532
  YS02001920           JUNCTION      2.87   357.21     0  01:39      0.0809         3.5       0.098
  YS02001923           JUNCTION      0.04   333.50     0  03:01     0.00106         3.4       0.042
  YS02001926           JUNCTION      0.05   330.48     0  03:01     0.00147        3.38       0.104
  YS02001929           JUNCTION    330.66   330.66     0  03:01        3.37        3.37       0.022
  YS02001658           JUNCTION      0.00   607.37     0  03:01           0        4.77       0.481
  YS02001661           JUNCTION      0.00   804.29     0  01:47           0        5.32       0.133
  YS02001664           JUNCTION    606.27   606.27     0  03:01        4.78        5.32       0.087
  YS02001622           JUNCTION      0.00   541.60     0  03:01           0        4.57       0.695
  YS02001633           JUNCTION    625.57   625.57     0  03:01        5.46        6.65       0.482
  YS02001649           JUNCTION      0.00  1285.14     0  03:01           0        10.3       0.356
  YS02001757           JUNCTION      0.00  2170.15     0  01:46           0        12.9       0.717
  YS02001895           JUNCTION      0.00   570.03     0  01:38           0        5.25       0.118
  YS02001625           JUNCTION      0.00   743.58     0  03:01           0        5.19       0.772
  YS02163301           JUNCTION      0.00   310.58     0  01:30           0        1.87       1.292
  YS02163601           JUNCTION      0.11   452.69     0  01:32      0.0031        5.95       0.504
  YS02164001           JUNCTION      0.00   452.17     0  01:32           0        5.94       0.334
  YS02001647           JUNCTION      0.00   846.70     0  03:18           0        8.44       0.335
  YSB1154              JUNCTION     54.28    54.28     0  01:34       0.243       0.243       0.595
  YSB6556              JUNCTION      0.00    54.37     0  01:35           0       0.244       0.519
  YSB1174              JUNCTION     46.17    46.17     0  01:30        0.18       0.181       0.712
  YSB1171              JUNCTION      0.00    98.48     0  01:34           0       0.431       1.495
  YS02006553           JUNCTION      0.00   699.73     0  03:50           0        7.72       0.206
  YS02006561           JUNCTION      0.00  1148.72     0  01:44           0        13.5       0.006
  YS02006556           JUNCTION      0.00   699.75     0  03:50           0        7.73       0.147
  YS02006558           JUNCTION    724.98  1148.99     0  01:44         5.8        13.5       0.041
  YS02001783           JUNCTION      0.00  1148.62     0  01:44           0        13.5       0.021
  YS02001784           JUNCTION      1.06  1149.78     0  01:44      0.0299        13.5       0.033
  YS02001786           JUNCTION      0.06  1149.74     0  01:44     0.00159        13.5       0.029
  YS02001788           JUNCTION      0.07  1150.37     0  01:44       0.002        13.5       0.016
  YS02001790           JUNCTION      0.15  1161.58     0  01:43     0.00437        13.5       0.024
  YS02001791           JUNCTION      0.00  1256.97     0  01:43           0        13.5       0.008
  YS02001793           JUNCTION      0.00  1200.53     0  01:40           0        13.5       0.001
  WS02004139           JUNCTION      0.32   380.34     0  00:40     0.00905         7.5       0.449
  WSC                  OUTFALL       0.00  1172.30     0  01:47           0          18       0.000
  3                    OUTFALL       0.00   649.93     0  01:37           0        6.01       0.000
  4                    OUTFALL       0.00   321.98     0  03:00           0        1.26       0.000
  5                    OUTFALL       0.00     0.00     0  00:00           0           0       0.000 ltr
  JK-storage           STORAGE       0.00  1222.89     0  01:40           0        13.6      -2.630
  CC-storage           STORAGE       0.00  2170.59     0  01:46           0        8.33       0.759
  XR-storage           STORAGE    1408.02  1408.02     0  03:01        16.7        17.3      -0.001
  
  
  **********************
  Node Surcharge Summary
  **********************
  
  Surcharging occurs when water rises above the top of the highest conduit.
  ---------------------------------------------------------------------
                                               Max. Height   Min. Depth
                                   Hours       Above Crown    Below Rim
  Node                 Type      Surcharged         Meters       Meters
  ---------------------------------------------------------------------
  WS02004401           JUNCTION        1.26          0.238        1.422
  WS02004402           JUNCTION        1.37          0.228        1.512
  WS02004403           JUNCTION        1.40          0.216        1.814
  WS02004404           JUNCTION        1.76          0.282        2.498
  WS02004406           JUNCTION        1.71          0.183        2.267
  WS02004405           JUNCTION        1.74          0.259        2.541
  WS02006109           JUNCTION        2.70          0.555        1.265
  WS02006110           JUNCTION        1.93          0.296        1.554
  WS02006112           JUNCTION        2.03          0.479        1.201
  WS02006115           JUNCTION        0.74          0.154        2.096
  WS02006116           JUNCTION        0.84          0.183        2.107
  WS02006230           JUNCTION        1.75          0.438        1.132
  WS02006231           JUNCTION        1.81          0.911        0.619
  WS02006232           JUNCTION        2.79          0.702        0.778
  WS02006234           JUNCTION        1.96          0.454        0.786
  WS02006235           JUNCTION        2.38          0.471        0.819
  WS02006238           JUNCTION        2.60          0.489        0.941
  WS02006240           JUNCTION        1.76          0.648        0.742
  WS02006242           JUNCTION        2.18          0.820        0.000
  WS02006243           JUNCTION        1.28          0.455        0.315
  WS02006245           JUNCTION        0.94          0.409        0.441
  WS02006247           JUNCTION        0.92          0.760        0.000
  WS02006239           JUNCTION        1.88          0.467        0.823
  WS02006252           JUNCTION        1.84          0.193        0.907
  WS02006228           JUNCTION        2.63          0.685        1.515
  HS02004817           JUNCTION        0.32          0.039        1.701
  YS02001745           JUNCTION        0.59          0.033        1.317
  YS02001748           JUNCTION        6.28          1.190        0.000
  YS02001751           JUNCTION        6.30          1.141        0.059
  YS02001754           JUNCTION        6.31          1.044        0.106
  YS02001762           JUNCTION        6.34          1.065        0.085
  YS02001765           JUNCTION        6.34          1.011        0.089
  YS02001767           JUNCTION        6.33          0.965        0.065
  YS02001770           JUNCTION        6.33          0.920        0.000
  YS02001774           JUNCTION        6.34          1.015        0.035
  YS02001779           JUNCTION        6.31          0.680        0.000
  YS02001882           JUNCTION        2.57          0.665        0.165
  YS02001884           JUNCTION        2.60          0.695        0.175
  YS02001759           JUNCTION        6.34          1.106        0.104
  YS02001887           JUNCTION        2.68          0.769        0.181
  YS02001890           JUNCTION        2.70          0.760        0.000
  YS02001898           JUNCTION        2.53          0.547        0.193
  YS02001901           JUNCTION        2.64          0.686        0.184
  YS02001904           JUNCTION        2.62          0.645        0.205
  YS02001907           JUNCTION        3.04          0.950        0.000
  YS02001910           JUNCTION        2.74          0.911        0.189
  YS02001915           JUNCTION        2.56          0.857        0.143
  YS02001918           JUNCTION        2.33          0.810        0.000
  YS02001619           JUNCTION        6.31          0.610        0.000
  YS02001629           JUNCTION        6.31          0.470        0.000
  YS02001641           JUNCTION        6.34          0.951        0.149
  YS02001644           JUNCTION        6.34          0.920        0.000
  YS02001652           JUNCTION        6.31          1.130        0.000
  YS02001655           JUNCTION        6.30          1.200        0.000
  YS02001920           JUNCTION        2.37          0.689        0.451
  YS02001923           JUNCTION        0.01          0.288        0.532
  YS02001926           JUNCTION        0.01          0.308        0.592
  YS02001658           JUNCTION        6.29          1.300        0.000
  YS02001661           JUNCTION        1.05          1.390        0.000
  YS02001622           JUNCTION        6.31          0.620        0.000
  YS02001633           JUNCTION        6.33          0.955        0.105
  YS02001649           JUNCTION        6.34          1.050        0.000
  YS02001757           JUNCTION        6.36          1.208        0.002
  YS02001895           JUNCTION        2.54          0.572        0.178
  YS02001625           JUNCTION        6.32          0.780        0.000
  YS02163301           JUNCTION        6.33          0.900        0.130
  YS02163601           JUNCTION        6.34          1.023        0.057
  YS02164001           JUNCTION        6.33          0.952        0.148
  YS02001647           JUNCTION        6.32          0.804        0.096
  YS02006553           JUNCTION        3.08          1.161        0.029
  YS02006561           JUNCTION        2.42          0.951        0.199
  YS02006556           JUNCTION        2.90          1.334        0.016
  YS02006558           JUNCTION        2.88          1.400        0.000
  YS02001783           JUNCTION        2.93          1.473        0.127
  YS02001784           JUNCTION        3.02          1.490        0.000
  YS02001786           JUNCTION        2.88          1.430        0.000
  YS02001788           JUNCTION        2.75          1.480        0.000
  YS02001790           JUNCTION        4.01          1.157        0.000
  YS02001791           JUNCTION        4.04          0.994        0.926
  YS02001793           JUNCTION        4.10          0.888        1.712
  
  
  *********************
  Node Flooding Summary
  *********************
  
  Flooding refers to all water that overflows a node, whether it ponds or not.
  --------------------------------------------------------------------------
                                                             Total   Maximum
                                 Maximum   Time of Max       Flood    Ponded
                        Hours       Rate    Occurrence      Volume     Depth
  Node                 Flooded       LPS   days hr:min    10^6 ltr    Meters
  --------------------------------------------------------------------------
  WS02006242              0.01    105.68      0  01:30       0.000     0.000
  WS02006247              0.01     46.39      0  01:32       0.000     0.000
  YS02001748              0.01    153.17      0  01:32       0.000     0.000
  YS02001770              0.63    188.18      0  03:01       0.195     0.000
  YS02001779              4.57    851.17      0  02:55       5.872     0.000
  YS02001890              1.65    271.44      0  03:01       0.959     0.000
  YS02001907              2.18   1136.81      0  03:01       5.462     0.000
  YS02001918              0.01     57.37      0  01:37       0.000     0.000
  YS02001619              0.01    127.50      0  01:31       0.000     0.000
  YS02001629              0.01    371.64      0  01:31       0.004     0.000
  YS02001644              5.63   1882.06      0  03:01      17.271     0.000
  YS02001652              0.01     22.06      0  01:33       0.000     0.000
  YS02001655              0.01     14.26      0  01:33       0.000     0.000
  YS02001658              0.01    238.99      0  01:32       0.000     0.000
  YS02001661              0.01    180.05      0  01:33       0.000     0.000
  YS02001622              0.01     72.64      0  01:31       0.000     0.000
  YS02001649              0.90    438.43      0  03:01       0.894     0.000
  YS02001625              2.88    743.56      0  03:01       3.934     0.000
  YS02006558              0.01      4.87      0  01:44       0.000     0.000
  YS02001784              0.01     10.35      0  01:44       0.000     0.000
  YS02001786              0.01      6.10      0  01:44       0.000     0.000
  YS02001788              0.01    145.01      0  01:44       0.000     0.000
  YS02001790              0.01    219.83      0  01:44       0.000     0.000
  JK-storage              3.81    971.85      0  02:00       6.151     0.000
  XR-storage              5.77   1132.48      0  03:01       8.898     0.000
  
  
  **********************
  Storage Volume Summary
  **********************
  
  --------------------------------------------------------------------------------------------------
                         Average     Avg  Evap Exfil       Maximum     Max    Time of Max    Maximum
                          Volume    Pcnt  Pcnt  Pcnt        Volume    Pcnt     Occurrence    Outflow
  Storage Unit           1000 m3    Full  Loss  Loss       1000 m3    Full    days hr:min        LPS
  --------------------------------------------------------------------------------------------------
  JK-storage               0.215      74     0     0         0.291     100       0  01:45     600.00
  CC-storage               3.370      21     0     0         4.099      26       0  02:35     400.00
  XR-storage               0.879      95     0     0         0.926     100       0  01:48     380.00
  
  
  ***********************
  Outfall Loading Summary
  ***********************
  
  -----------------------------------------------------------
                         Flow       Avg       Max       Total
                         Freq      Flow      Flow      Volume
  Outfall Node           Pcnt       LPS       LPS    10^6 ltr
  -----------------------------------------------------------
  WSC                  100.00    714.31   1172.30      17.993
  3                     87.61    306.70    649.93       6.014
  4                     41.68    137.96    321.98       1.262
  5                      0.00      0.00      0.00       0.000
  -----------------------------------------------------------
  System                57.32   1158.97   2015.63      25.269
  
  
  ********************
  Link Flow Summary
  ********************
  
  -----------------------------------------------------------------------------
                                 Maximum  Time of Max   Maximum    Max/    Max/
                                  |Flow|   Occurrence   |Veloc|    Full    Full
  Link                 Type          LPS  days hr:min     m/sec    Flow   Depth
  -----------------------------------------------------------------------------
  WS02003066WSF200     CONDUIT    870.58     0  01:40      3.01    0.15    0.31
  WS02006287WS02006284 CONDUIT    821.06     0  01:36      2.53    0.38    0.43
  WS02006284WS02006280 CONDUIT    821.20     0  01:36      2.76    0.34    0.40
  WS02006280WS02006229 CONDUIT    821.19     0  01:36      4.44    0.18    0.34
  WS02006229WS02006228 CONDUIT    847.66     0  01:35      1.69    2.81    1.00
  WS02006256WS02006235 CONDUIT    163.01     0  01:25      2.40    1.73    1.00
  WS02006253WS02006251 CONDUIT    217.00     0  01:33      0.77    0.65    1.00
  WS02006252WS02006251 CONDUIT    400.75     0  06:20      3.19    1.47    1.00
  WS02006251WS02006249 CONDUIT    524.60     0  02:00      1.37    1.51    1.00
  WS02006249WS02006248 CONDUIT    355.44     0  06:21      1.16    1.95    0.98
  WS02006248WS02006247 CONDUIT    351.29     0  06:21      1.12    0.76    1.00
  WS02006247WS02006245 CONDUIT    347.55     0  06:21      1.09    2.76    1.00
  WS02006245WS02006243 CONDUIT    344.37     0  06:21      1.11    1.02    1.00
  WS02006243WS02006242 CONDUIT    336.33     0  06:21      1.01    0.72    1.00
  WS02006242WS02006240 CONDUIT    327.18     0  06:22      0.95    1.30    1.00
  WS02006240WS02006239 CONDUIT    316.90     0  06:22      0.99    1.00    1.00
  WS02006239WS02006238 CONDUIT    309.15     0  06:26      0.87    0.99    1.00
  WS02006238WS02006235 CONDUIT    311.62     0  07:40      0.85    0.70    1.00
  WS02006235WS02006234 CONDUIT    389.87     0  05:53      1.05    4.11    1.00
  WS02006234WS02006232 CONDUIT    388.01     0  05:52      1.02    0.78    1.00
  WS02006232WS02006231 CONDUIT    387.64     0  07:25      1.07    0.81    1.00
  WS02006231WS02006230 CONDUIT    386.85     0  07:28      1.36    5.87    1.00
  WS02006230WS02006229 CONDUIT    397.14     0  07:29      1.03    8.84    1.00
  WS02006228WS02006109 CONDUIT    847.66     0  01:35      1.69    3.70    1.00
  WS02006116WS02004401 CONDUIT    874.37     0  01:37      1.11    1.21    1.00
  WS02006115WS02006116 CONDUIT    874.54     0  01:37      1.11    1.12    1.00
  WS02006113WS02006111 CONDUIT    841.17     0  01:36      2.72    1.01    0.91
  WS02006112WS02006115 CONDUIT    875.14     0  01:37      1.11    0.52    1.00
  WS02006111WS02006112 CONDUIT    843.35     0  01:37      1.86    0.40    0.96
  WS02006110WS02006113 CONDUIT    848.87     0  01:35      1.81    0.77    0.95
  WS02006109WS02006110 CONDUIT    848.87     0  01:35      1.69    1.63    1.00
  WS02004411WS02004412 CONDUIT    870.46     0  01:39      1.19    1.24    0.88
  WS02004401WS02004402 CONDUIT    874.33     0  01:37      1.11    1.05    1.00
  WS02004413WS02003067 CONDUIT    870.59     0  01:40      1.46    0.37    0.71
  WS02004412WS02004413 CONDUIT    870.52     0  01:39      1.14    0.58    0.93
  WS02004410WS02004411 CONDUIT    870.59     0  01:39      1.18    1.19    0.89
  WS02004409WS02004410 CONDUIT    871.09     0  01:38      1.20    1.13    0.90
  WS02004407WS02004409 CONDUIT    874.32     0  01:37      1.81    0.31    0.64
  WS02004406WS02004407 CONDUIT    875.36     0  01:36      1.51    0.39    0.69
  WS02004405WS02004406 CONDUIT    874.79     0  01:37      1.11    1.73    1.00
  WS02004404WS02004405 CONDUIT    874.75     0  01:37      1.11    8.57    1.00
  WS02004403WS02004404 CONDUIT    874.56     0  01:37      1.11    0.63    1.00
  WS02004402WS02004403 CONDUIT    874.43     0  01:37      1.11    1.26    1.00
  WS02004139WS02001211 CONDUIT    380.84     0  03:40      0.81    0.48    0.59
  WS02004138WS02004139 CONDUIT    380.02     0  00:40      3.34    0.08    0.44
  WS02003067WS02003066 CONDUIT    870.68     0  01:40      1.58    0.28    0.49
  WS02001213WS02003059 CONDUIT    390.76     0  03:41      0.78    0.64    0.81
  WS02001212WS02001213 CONDUIT    389.54     0  03:40      1.32    0.60    0.49
  WS02001211WS02001212 CONDUIT    388.84     0  03:40      0.78    0.30    0.65
  WS02003072WS02003073 CONDUIT   1170.26     0  01:46      1.87    2.53    0.54
  WS02003069WS02003072 CONDUIT   1170.18     0  01:46      1.74    0.56    0.57
  WS02003060WS02003069 CONDUIT   1169.88     0  01:45      1.97    0.46    0.52
  WS02003059WS02003060 CONDUIT    392.73     0  03:41      0.95    0.26    0.72
  HS02004901HS02004770 CONDUIT     40.98     0  01:33      0.10    0.15    0.57
  HS02004876HS02004881 CONDUIT    157.88     0  01:36      1.33    1.68    0.17
  HS02004870HS02004876 CONDUIT    127.61     0  01:36      0.90    0.08    0.20
  HS02004842HS02004848 CONDUIT     18.52     0  01:51      0.08    0.01    0.35
  HS02004837HS02004842 CONDUIT     18.98     0  01:52      0.42    0.01    0.36
  HS02004830HS02004837 CONDUIT     74.30     0  01:37      0.68    0.07    0.16
  HS02004824HS02004830 CONDUIT     75.03     0  01:38      0.62    0.10    0.21
  HS02004817HS02004824 CONDUIT    150.31     0  01:41      0.35    0.07    0.62
  HS02004770HS02004777 CONDUIT    211.13     0  01:32      0.52    0.39    0.58
  HS02004799HS02004480 CONDUIT    525.37     0  01:34      1.14    0.66    0.66
  HS02004792HS02004799 CONDUIT    478.53     0  01:33      1.27    0.29    0.54
  HS02004788HS02004792 CONDUIT    277.00     0  01:34      1.34    0.18    0.30
  HS02004785HS02004788 CONDUIT    210.87     0  01:34      0.96    1.59    0.31
  HS02004777HS02004785 CONDUIT    210.79     0  01:33      0.62    0.26    0.49
  HS02004480HS02004478 CONDUIT    623.55     0  01:34      1.66    2.63    0.54
  HS02004479HS02004480 CONDUIT     98.65     0  01:35      0.34    0.10    0.63
  HS02004862HS02004870 CONDUIT     96.84     0  01:37      0.86    0.10    0.16
  HS02004848HS02004852 CONDUIT     45.39     0  01:37      0.56    0.05    0.12
  HS02004856HS02004862 CONDUIT     68.36     0  01:37      0.64    0.07    0.15
  HS02004852HS02004856 CONDUIT     45.48     0  01:38      0.37    0.05    0.18
  HS02004802HS02004478 CONDUIT    205.91     0  01:39      0.56    0.18    0.54
  HS02004478WS02006287 CONDUIT    821.03     0  01:36      2.26    0.23    0.40
  HS02004817HS02004807 CONDUIT    151.35     0  01:41      0.28    0.09    0.79
  HS02004807HS02004802 CONDUIT    204.81     0  01:39      0.50    0.39    0.59
  YS02001759YS02001757 CONDUIT    890.46     0  01:46      1.13    0.63    1.00
  YS02001762YS02001759 CONDUIT    393.73     0  01:40      0.50    0.45    1.00
  YS02001765YS02001762 CONDUIT    393.61     0  01:40      0.50    0.37    1.00
  YS02001770YS02001767 CONDUIT    393.16     0  01:40      0.50    1.56    1.00
  YS02001774YS02001770 CONDUIT    851.17     0  02:55      1.08    0.54    1.00
  YS02001779YS02001774 CONDUIT    851.17     0  02:55      1.08    0.43    1.00
  YS02001649YS02001757 CONDUIT    907.74     0  01:45      1.16    0.55    1.00
  YS02001767YS02001765 CONDUIT    393.44     0  01:40      0.50    0.49    1.00
  YS02006561YS02001783 CONDUIT   1148.62     0  01:44      2.29    0.59    1.00
  YS02001783YS02001784 CONDUIT   1148.72     0  01:44      2.29    1.58    1.00
  YS02001784YS02001785 CONDUIT   1149.69     0  01:44      2.29    2.68    1.00
  YS02001788YS02001790 CONDUIT   1161.43     0  01:43      2.73    0.86    1.00
  YS02001790YS02001791 CONDUIT   1256.97     0  01:43      3.39    1.37    1.00
  YS02001791YS02001793 CONDUIT   1200.53     0  01:40      6.67    0.52    1.00
  YS02001910YS02001907 CONDUIT    868.11     0  03:01      1.11    0.49    1.00
  YS02001786YS02001788 CONDUIT   1150.30     0  01:44      2.47    2.22    1.00
  YS02001915YS02001910 CONDUIT    868.05     0  03:01      1.11    0.43    1.00
  YS02001918YS02001915 CONDUIT    357.13     0  01:39      0.55    0.20    1.00
  YS02001923YS02001920 CONDUIT    354.34     0  01:39      0.88    0.16    1.00
  YS02001926YS02001923 CONDUIT    333.47     0  03:01      0.95    0.48    1.00
  YS02001929YS02001926 CONDUIT    330.43     0  03:01      1.03    0.16    0.95
  YS02001920YS02001918 CONDUIT    357.09     0  01:39      0.84    0.35    1.00
  YS02001629YS02163301 CONDUIT    297.64     0  01:30      0.38    0.37    1.00
  YS02001619YS02001622 CONDUIT    541.60     0  03:01      0.90    0.80    1.00
  YS02001622YS02001625 CONDUIT    541.66     0  03:01      0.69    0.29    1.00
  YS02001625YS02001629 CONDUIT    306.41     0  01:30      0.45    0.15    1.00
  YS02163301YS02001633 CONDUIT    310.58     0  01:30      0.40    0.29    1.00
  YS02163601YS02164001 CONDUIT    452.17     0  01:32      0.58    0.40    1.00
  YS02164001YS02001641 CONDUIT    452.11     0  01:32      0.58    0.62    1.00
  YS02001641YS02001644 CONDUIT    452.45     0  01:32      0.58    1.46    1.00
  YS02001647YS02001649 CONDUIT    846.70     0  03:18      1.08    0.45    1.00
  YS02006553YS02006556 CONDUIT    699.75     0  03:50      0.89    0.60    1.00
  YS02006556YS02006558 CONDUIT    699.82     0  03:50      0.89    0.55    1.00
  YSB6556YSB1171       CONDUIT     54.79     0  01:36      0.16    0.06    0.86
  YS02001907YS02006553 CONDUIT    699.73     0  03:50      0.78    0.82    1.00
  YS02006558YS02006561 CONDUIT   1148.72     0  01:44      4.06    2.54    1.00
  YS02001633YS02163601 CONDUIT    452.58     0  01:32      0.58    0.48    1.00
  YS02001644YS02001647 CONDUIT    846.70     0  03:18      1.08    0.50    1.00
  YS02001745YS02001748 CONDUIT    636.30     0  03:01      1.91    0.24    1.00
  YS02001748YS02001751 CONDUIT    636.37     0  03:01      1.45    0.32    1.00
  YS02001751YS02001754 CONDUIT    636.43     0  03:01      1.17    0.31    1.00
  YS02001754YS02001757 CONDUIT    636.74     0  03:01      0.81    0.26    1.00
  YS02001882YS02001884 CONDUIT     41.37     0  01:34      0.18    0.05    1.00
  YS02001884YS02001887 CONDUIT     57.28     0  01:32      0.14    0.08    1.00
  YS02001890YS02001895 CONDUIT    570.03     0  01:38      0.73    0.27    1.00
  YS02001895YS02001898 CONDUIT    570.07     0  01:38      0.73    0.99    1.00
  YS02001898YS02001901 CONDUIT    570.64     0  01:38      0.73    0.37    1.00
  YS02001901YS02001904 CONDUIT    570.76     0  01:38      0.73    0.89    1.00
  YS02001904YS02001907 CONDUIT    570.90     0  01:38      0.73    0.20    1.00
  YS02001887YS02001890 CONDUIT    787.86     0  03:01      1.00    1.35    1.00
  YS02001652YS02001649 CONDUIT    607.55     0  03:01      0.77    0.30    1.00
  YS02001655YS02001652 CONDUIT    607.55     0  03:01      1.26    0.30    1.00
  YS02001658YS02001655 CONDUIT    607.38     0  03:01      1.67    0.26    1.00
  YS02001661YS02001658 CONDUIT    607.37     0  03:01      2.02    0.24    1.00
  YS02001664YS02001661 CONDUIT    804.29     0  01:47      1.90    0.25    0.85
  YSB1154YSB6556       CONDUIT     54.37     0  01:35      0.17    0.10    0.79
  YSB1174YSB1171       CONDUIT     45.34     0  01:31      0.13    0.07    0.90
  YSB1171HS02004479    CONDUIT     98.35     0  01:34      0.54    0.07    0.73
  HS02004881HS02006253 CONDUIT    174.50     0  01:36      2.53    0.03    0.37
  YS02001793JiankangQianchi CONDUIT   1222.89     0  01:40     16.33    0.10    1.00
  YS02001757CaochengTiaoxuchi CONDUIT   2170.59     0  01:46      3.81    0.95    1.00
  WSF200WS02003060     CONDUIT    869.59     0  01:39      2.05    0.19    0.42
  1                    CONDUIT   1172.30     0  01:47      3.47    0.41    0.45
  2                    CONDUIT    321.98     0  03:00      6.51    0.77    0.66
  3                    CONDUIT    649.93     0  01:37     10.11    1.04    0.93
  4                    CONDUIT      0.00     0  00:00      0.00    0.00    0.00
  CC-Pump-1            PUMP       200.00     0  01:40              1.00
  CC-Pump-2            PUMP       200.00     0  02:00              1.00
  JK-Pump-1            PUMP       300.00     0  01:30              1.00
  JK-Pump-2            PUMP       300.00     0  01:27              1.00
  XR-Pump-1            PUMP        95.00     0  00:00              1.00
  XR-Pump-2            PUMP        95.00     0  00:00              1.00
  XR-Pump-3            PUMP        95.00     0  00:00              1.00
  XR-Pump-4            PUMP        95.00     0  00:40              1.00
  
  
  ***************************
  Flow Classification Summary
  ***************************
  
  -------------------------------------------------------------------------------------
                      Adjusted    ---------- Fraction of Time in Flow Class ---------- 
                       /Actual         Up    Down  Sub   Sup   Up    Down  Norm  Inlet 
  Conduit               Length    Dry  Dry   Dry   Crit  Crit  Crit  Crit  Ltd   Ctrl  
  -------------------------------------------------------------------------------------
  WS02003066WSF200        1.00   0.04  0.01  0.00  0.00  0.95  0.00  0.00  0.54  0.00
  WS02006287WS02006284    1.00   0.03  0.01  0.00  0.51  0.45  0.00  0.00  0.61  0.00
  WS02006284WS02006280    1.00   0.04  0.00  0.00  0.00  0.00  0.00  0.96  0.00  0.00
  WS02006280WS02006229    1.00   0.04  0.00  0.00  0.00  0.05  0.00  0.91  0.01  0.00
  WS02006229WS02006228    1.00   0.00  0.00  0.00  1.00  0.00  0.00  0.00  0.00  0.00
  WS02006256WS02006235    1.00   0.01  0.00  0.00  0.99  0.00  0.00  0.00  0.00  0.00
  WS02006253WS02006251    1.00   0.01  0.03  0.00  0.96  0.00  0.00  0.00  0.00  0.00
  WS02006252WS02006251    1.00   0.05  0.00  0.00  0.00  0.00  0.95  0.00  0.00  0.00
  WS02006251WS02006249    1.00   0.00  0.00  0.00  1.00  0.00  0.00  0.00  0.19  0.00
  WS02006249WS02006248    1.00   0.00  0.00  0.00  0.91  0.00  0.09  0.00  0.00  0.00
  WS02006248WS02006247    1.00   0.00  0.00  0.00  0.98  0.00  0.00  0.02  0.08  0.00
  WS02006247WS02006245    1.00   0.00  0.00  0.00  0.98  0.00  0.00  0.02  0.00  0.00
  WS02006245WS02006243    1.00   0.00  0.00  0.00  0.97  0.00  0.00  0.02  0.01  0.00
  WS02006243WS02006242    1.00   0.01  0.00  0.00  0.99  0.00  0.00  0.00  0.10  0.00
  WS02006242WS02006240    1.00   0.01  0.00  0.00  0.99  0.00  0.00  0.00  0.00  0.00
  WS02006240WS02006239    1.00   0.01  0.00  0.00  0.98  0.00  0.00  0.01  0.01  0.00
  WS02006239WS02006238    1.00   0.01  0.00  0.00  0.99  0.00  0.00  0.00  0.00  0.00
  WS02006238WS02006235    1.00   0.01  0.00  0.00  0.99  0.00  0.00  0.00  0.00  0.00
  WS02006235WS02006234    1.00   0.01  0.00  0.00  0.98  0.00  0.01  0.00  0.00  0.00
  WS02006234WS02006232    1.00   0.01  0.00  0.00  0.99  0.00  0.00  0.00  0.00  0.00
  WS02006232WS02006231    1.00   0.01  0.00  0.00  0.99  0.00  0.00  0.00  0.00  0.00
  WS02006231WS02006230    1.00   0.01  0.00  0.00  0.68  0.00  0.31  0.00  0.00  0.00
  WS02006230WS02006229    1.00   0.00  0.00  0.00  1.00  0.00  0.00  0.00  0.01  0.00
  WS02006228WS02006109    1.00   0.00  0.00  0.00  1.00  0.00  0.00  0.00  0.00  0.00
  WS02006116WS02004401    1.00   0.02  0.00  0.00  0.98  0.00  0.00  0.00  0.00  0.00
  WS02006115WS02006116    1.00   0.02  0.00  0.00  0.97  0.00  0.00  0.01  0.00  0.00
  WS02006113WS02006111    1.00   0.01  0.00  0.00  0.14  0.84  0.00  0.00  0.10  0.00
  WS02006112WS02006115    1.00   0.01  0.01  0.00  0.97  0.00  0.00  0.00  0.00  0.00
  WS02006111WS02006112    1.00   0.01  0.00  0.00  0.98  0.00  0.00  0.00  0.71  0.00
  WS02006110WS02006113    1.00   0.00  0.01  0.00  0.99  0.00  0.00  0.00  0.00  0.00
  WS02006109WS02006110    1.00   0.00  0.00  0.00  1.00  0.00  0.00  0.00  0.00  0.00
  WS02004411WS02004412    1.00   0.03  0.00  0.00  0.97  0.00  0.00  0.00  0.00  0.00
  WS02004401WS02004402    1.00   0.02  0.00  0.00  0.98  0.00  0.00  0.00  0.00  0.00
  WS02004413WS02003067    1.00   0.03  0.01  0.00  0.00  0.00  0.96  0.00  0.00  0.00
  WS02004412WS02004413    1.00   0.03  0.00  0.00  0.97  0.00  0.00  0.00  0.01  0.00
  WS02004410WS02004411    1.00   0.03  0.00  0.00  0.97  0.00  0.00  0.00  0.01  0.00
  WS02004409WS02004410    1.00   0.03  0.00  0.00  0.97  0.00  0.00  0.00  0.03  0.00
  WS02004407WS02004409    1.00   0.03  0.00  0.00  0.97  0.00  0.00  0.00  0.88  0.00
  WS02004406WS02004407    1.00   0.00  0.03  0.00  0.97  0.00  0.00  0.00  0.00  0.00
  WS02004405WS02004406    1.00   0.00  0.00  0.00  1.00  0.00  0.00  0.00  0.04  0.00
  WS02004404WS02004405    1.00   0.00  0.00  0.00  1.00  0.00  0.00  0.00  0.00  0.00
  WS02004403WS02004404    1.00   0.00  0.03  0.00  0.97  0.00  0.00  0.00  0.00  0.00
  WS02004402WS02004403    1.00   0.03  0.00  0.00  0.97  0.00  0.00  0.00  0.00  0.00
  WS02004139WS02001211    1.00   0.00  0.00  0.00  1.00  0.00  0.00  0.00  0.00  0.00
  WS02004138WS02004139    1.00   0.00  0.00  0.00  1.00  0.00  0.00  0.00  1.00  0.00
  WS02003067WS02003066    1.00   0.04  0.01  0.00  0.95  0.00  0.00  0.00  0.00  0.00
  WS02001213WS02003059    1.00   0.00  0.00  0.00  1.00  0.00  0.00  0.00  0.00  0.00
  WS02001212WS02001213    1.00   0.00  0.00  0.00  0.88  0.00  0.12  0.00  0.00  0.00
  WS02001211WS02001212    1.00   0.00  0.00  0.00  1.00  0.00  0.00  0.00  0.00  0.00
  WS02003072WS02003073    1.00   0.00  0.00  0.00  0.00  0.00  0.00  1.00  0.00  0.00
  WS02003069WS02003072    1.00   0.00  0.00  0.00  1.00  0.00  0.00  0.00  0.18  0.00
  WS02003060WS02003069    1.00   0.00  0.00  0.00  0.99  0.01  0.00  0.00  0.09  0.00
  WS02003059WS02003060    1.00   0.00  0.00  0.00  1.00  0.00  0.00  0.00  0.01  0.00
  HS02004901HS02004770    1.00   0.04  0.00  0.00  0.96  0.00  0.00  0.00  0.00  0.00
  HS02004876HS02004881    1.00   0.00  0.00  0.00  0.70  0.30  0.00  0.00  0.00  0.00
  HS02004870HS02004876    1.00   0.00  0.00  0.00  1.00  0.00  0.00  0.00  0.95  0.00
  HS02004842HS02004848    1.00   0.00  0.04  0.00  0.96  0.00  0.00  0.00  0.54  0.00
  HS02004837HS02004842    1.00   0.00  0.00  0.00  1.00  0.00  0.00  0.00  0.11  0.00
  HS02004830HS02004837    1.00   0.00  0.00  0.00  1.00  0.00  0.00  0.00  0.99  0.00
  HS02004824HS02004830    1.00   0.00  0.00  0.00  1.00  0.00  0.00  0.00  0.03  0.00
  HS02004817HS02004824    1.00   0.00  0.00  0.00  1.00  0.00  0.00  0.00  0.88  0.00
  HS02004770HS02004777    1.00   0.00  0.04  0.00  0.96  0.00  0.00  0.00  0.02  0.00
  HS02004799HS02004480    1.00   0.00  0.01  0.00  0.96  0.00  0.03  0.00  0.00  0.00
  HS02004792HS02004799    1.00   0.00  0.00  0.00  1.00  0.00  0.00  0.00  0.98  0.00
  HS02004788HS02004792    1.00   0.00  0.00  0.00  1.00  0.00  0.00  0.00  0.98  0.00
  HS02004785HS02004788    1.00   0.00  0.00  0.00  1.00  0.00  0.00  0.00  0.00  0.00
  HS02004777HS02004785    1.00   0.00  0.00  0.00  1.00  0.00  0.00  0.00  0.11  0.00
  HS02004480HS02004478    1.00   0.04  0.00  0.00  0.57  0.00  0.00  0.39  0.00  0.00
  HS02004479HS02004480    1.00   0.01  0.00  0.00  0.99  0.00  0.00  0.00  0.11  0.00
  HS02004862HS02004870    1.00   0.00  0.00  0.00  1.00  0.00  0.00  0.00  0.02  0.00
  HS02004848HS02004852    1.00   0.04  0.00  0.00  0.96  0.00  0.00  0.00  0.81  0.00
  HS02004856HS02004862    1.00   0.00  0.04  0.00  0.96  0.00  0.00  0.00  0.84  0.00
  HS02004852HS02004856    1.00   0.04  0.00  0.00  0.96  0.00  0.00  0.00  0.70  0.00
  HS02004802HS02004478    1.00   0.04  0.00  0.00  0.96  0.00  0.00  0.00  0.02  0.00
  HS02004478WS02006287    1.00   0.04  0.00  0.00  0.63  0.34  0.00  0.00  0.58  0.00
  HS02004817HS02004807    1.00   0.00  0.04  0.00  0.96  0.00  0.00  0.00  0.01  0.00
  HS02004807HS02004802    1.00   0.04  0.00  0.00  0.96  0.00  0.00  0.00  0.00  0.00
  YS02001759YS02001757    1.00   0.00  0.00  0.00  1.00  0.00  0.00  0.00  0.15  0.00
  YS02001762YS02001759    1.00   0.00  0.00  0.00  1.00  0.00  0.00  0.00  0.02  0.00
  YS02001765YS02001762    1.00   0.00  0.00  0.00  1.00  0.00  0.00  0.00  0.13  0.00
  YS02001770YS02001767    1.00   0.00  0.00  0.00  1.00  0.00  0.00  0.00  0.00  0.00
  YS02001774YS02001770    1.00   0.00  0.04  0.00  0.96  0.00  0.00  0.00  0.02  0.00
  YS02001779YS02001774    1.00   0.00  0.00  0.00  1.00  0.00  0.00  0.00  0.16  0.00
  YS02001649YS02001757    1.00   0.00  0.00  0.00  1.00  0.00  0.00  0.00  0.15  0.00
  YS02001767YS02001765    1.00   0.00  0.00  0.00  1.00  0.00  0.00  0.00  0.00  0.00
  YS02006561YS02001783    1.00   0.04  0.00  0.00  0.64  0.32  0.00  0.00  0.43  0.00
  YS02001783YS02001784    1.00   0.00  0.04  0.00  0.96  0.00  0.00  0.00  0.00  0.00
  YS02001784YS02001785    1.00   0.00  0.00  0.00  1.00  0.00  0.00  0.00  0.16  0.00
  YS02001788YS02001790    1.00   0.00  0.00  0.00  0.66  0.34  0.00  0.00  0.34  0.00
  YS02001790YS02001791    1.00   0.00  0.00  0.00  0.62  0.38  0.00  0.00  0.27  0.00
  YS02001791YS02001793    1.00   0.00  0.00  0.00  0.64  0.36  0.00  0.00  0.03  0.00
  YS02001910YS02001907    1.00   0.00  0.00  0.00  1.00  0.00  0.00  0.00  0.12  0.00
  YS02001786YS02001788    1.00   0.00  0.00  0.00  0.68  0.32  0.00  0.00  0.00  0.00
  YS02001915YS02001910    1.00   0.00  0.00  0.00  1.00  0.00  0.00  0.00  0.13  0.00
  YS02001918YS02001915    1.00   0.00  0.00  0.00  1.00  0.00  0.00  0.00  0.45  0.00
  YS02001923YS02001920    1.00   0.00  0.00  0.00  1.00  0.00  0.00  0.00  0.64  0.00
  YS02001926YS02001923    1.00   0.00  0.03  0.00  0.42  0.00  0.55  0.00  0.00  0.00
  YS02001929YS02001926    1.00   0.00  0.04  0.00  0.96  0.00  0.00  0.00  0.56  0.00
  YS02001920YS02001918    1.00   0.00  0.00  0.00  1.00  0.00  0.00  0.00  0.00  0.00
  YS02001629YS02163301    1.00   0.04  0.00  0.00  0.96  0.00  0.00  0.00  0.00  0.00
  YS02001619YS02001622    1.00   0.04  0.00  0.00  0.96  0.00  0.00  0.00  0.00  0.00
  YS02001622YS02001625    1.00   0.04  0.00  0.00  0.96  0.00  0.00  0.00  0.03  0.00
  YS02001625YS02001629    1.00   0.04  0.01  0.00  0.95  0.00  0.01  0.00  0.00  0.00
  YS02163301YS02001633    1.00   0.00  0.04  0.00  0.96  0.00  0.00  0.00  0.00  0.00
  YS02163601YS02164001    1.00   0.00  0.03  0.00  0.97  0.00  0.00  0.00  0.00  0.00
  YS02164001YS02001641    1.00   0.00  0.03  0.00  0.97  0.00  0.00  0.00  0.06  0.00
  YS02001641YS02001644    1.00   0.00  0.00  0.00  1.00  0.00  0.00  0.00  0.00  0.00
  YS02001647YS02001649    1.00   0.00  0.04  0.00  0.96  0.00  0.00  0.00  0.01  0.00
  YS02006553YS02006556    1.00   0.00  0.00  0.00  1.00  0.00  0.00  0.00  0.03  0.00
  YS02006556YS02006558    1.00   0.00  0.00  0.00  1.00  0.00  0.00  0.00  0.00  0.00
  YSB6556YSB1171          1.00   0.01  0.03  0.00  0.96  0.00  0.00  0.00  0.00  0.00
  YS02001907YS02006553    1.00   0.00  0.00  0.00  1.00  0.00  0.00  0.00  0.00  0.00
  YS02006558YS02006561    1.00   0.04  0.00  0.00  0.44  0.51  0.00  0.00  0.35  0.00
  YS02001633YS02163601    1.00   0.00  0.00  0.00  1.00  0.00  0.00  0.00  0.15  0.00
  YS02001644YS02001647    1.00   0.00  0.04  0.00  0.96  0.00  0.00  0.00  0.00  0.00
  YS02001745YS02001748    1.00   0.00  0.00  0.00  0.94  0.00  0.00  0.06  0.00  0.00
  YS02001748YS02001751    1.00   0.00  0.00  0.00  0.99  0.01  0.00  0.00  0.13  0.00
  YS02001751YS02001754    1.00   0.00  0.00  0.00  0.96  0.00  0.00  0.04  0.01  0.00
  YS02001754YS02001757    1.00   0.00  0.00  0.00  1.00  0.00  0.00  0.00  0.16  0.00
  YS02001882YS02001884    1.00   0.04  0.00  0.00  0.96  0.00  0.00  0.00  0.00  0.00
  YS02001884YS02001887    1.00   0.01  0.02  0.00  0.97  0.00  0.00  0.00  0.00  0.00
  YS02001890YS02001895    1.00   0.00  0.04  0.00  0.96  0.00  0.00  0.00  0.00  0.00
  YS02001895YS02001898    1.00   0.04  0.00  0.00  0.96  0.00  0.00  0.00  0.00  0.00
  YS02001898YS02001901    1.00   0.04  0.00  0.00  0.96  0.00  0.00  0.00  0.00  0.00
  YS02001901YS02001904    1.00   0.04  0.00  0.00  0.96  0.00  0.00  0.00  0.00  0.00
  YS02001904YS02001907    1.00   0.00  0.04  0.00  0.96  0.00  0.00  0.00  0.00  0.00
  YS02001887YS02001890    1.00   0.00  0.00  0.00  1.00  0.00  0.00  0.00  0.00  0.00
  YS02001652YS02001649    1.00   0.00  0.00  0.00  1.00  0.00  0.00  0.00  0.15  0.00
  YS02001655YS02001652    1.00   0.00  0.00  0.00  0.96  0.00  0.00  0.04  0.01  0.00
  YS02001658YS02001655    1.00   0.00  0.04  0.00  0.95  0.01  0.00  0.00  0.01  0.00
  YS02001661YS02001658    1.00   0.04  0.00  0.00  0.94  0.02  0.00  0.00  0.00  0.00
  YS02001664YS02001661    1.00   0.04  0.00  0.00  0.94  0.02  0.00  0.00  0.07  0.00
  YSB1154YSB6556          1.00   0.04  0.00  0.00  0.96  0.00  0.00  0.00  0.01  0.00
  YSB1174YSB1171          1.00   0.01  0.02  0.00  0.97  0.00  0.00  0.00  0.00  0.00
  YSB1171HS02004479       1.00   0.01  0.00  0.00  0.99  0.00  0.00  0.00  0.10  0.00
  HS02004881HS02006253    1.00   0.01  0.00  0.00  0.74  0.05  0.00  0.20  0.66  0.00
  YS02001793JiankangQianchi    1.00   0.00  0.00  0.00  0.85  0.15  0.00  0.00  0.23  0.00
  YS02001757CaochengTiaoxuchi    1.00   0.00  0.05  0.00  0.90  0.05  0.00  0.00  0.00  0.00
  WSF200WS02003060        1.00   0.00  0.04  0.00  0.73  0.24  0.00  0.00  0.33  0.00
  1                       1.00   0.00  0.00  0.00  0.00  1.00  0.00  0.00  0.37  0.00
  2                       1.00   0.58  0.00  0.00  0.00  0.42  0.00  0.00  0.11  0.00
  3                       1.00   0.12  0.00  0.00  0.00  0.88  0.00  0.00  0.12  0.00
  4                       1.00   1.00  0.00  0.00  0.00  0.00  0.00  0.00  0.00  0.00
  
  
  *************************
  Conduit Surcharge Summary
  *************************
  
  ----------------------------------------------------------------------------
                                                           Hours        Hours 
                         --------- Hours Full --------   Above Full   Capacity
  Conduit                Both Ends  Upstream  Dnstream   Normal Flow   Limited
  ----------------------------------------------------------------------------
  WS02006229WS02006228        2.63      2.77      2.63      4.80         2.63
  WS02006256WS02006235        6.42      6.42      7.37      3.03         0.01
  WS02006253WS02006251        0.38      0.38      0.63      0.01         0.01
  WS02006252WS02006251        0.98      0.98      1.84      1.62         0.01
  WS02006251WS02006249        0.01      0.41      0.01      1.56         0.01
  WS02006249WS02006248        0.01      0.01      0.01      4.14         0.01
  WS02006248WS02006247        0.01      0.01      0.92      0.01         0.01
  WS02006247WS02006245        0.94      0.97      0.94      4.88         0.75
  WS02006245WS02006243        0.99      0.99      1.28      0.03         0.01
  WS02006243WS02006242        1.39      1.39      2.18      0.01         0.01
  WS02006242WS02006240        1.76      1.76      2.50      1.20         0.01
  WS02006240WS02006239        1.80      1.80      1.88      0.01         0.01
  WS02006239WS02006238        2.53      2.53      2.60      0.01         0.01
  WS02006238WS02006235        2.52      2.52      2.75      0.01         0.01
  WS02006235WS02006234        1.96      1.96      2.38      6.03         0.14
  WS02006234WS02006232        2.01      2.01      2.79      0.01         0.01
  WS02006232WS02006231        1.81      1.81      2.79      0.01         0.01
  WS02006231WS02006230        1.74      1.75      1.85      6.20         0.11
  WS02006230WS02006229        3.35      4.49      3.35      6.52         3.20
  WS02006228WS02006109        2.70      2.96      2.70      5.58         2.70
  WS02006116WS02004401        1.24      1.24      1.26      1.02         1.02
  WS02006115WS02006116        0.82      0.82      0.84      0.58         0.56
  WS02006113WS02006111        0.01      0.01      0.01      0.12         0.01
  WS02006112WS02006115        0.74      0.74      2.03      0.01         0.01
  WS02006111WS02006112        0.01      0.01      5.01      0.01         0.01
  WS02006110WS02006113        0.01      0.01      2.88      0.01         0.01
  WS02006109WS02006110        1.93      1.93      2.97      1.94         0.01
  WS02004411WS02004412        0.01      0.01      0.01      1.16         0.01
  WS02004401WS02004402        1.26      1.26      1.37      0.25         0.25
  WS02004410WS02004411        0.01      0.01      0.01      0.97         0.01
  WS02004409WS02004410        0.01      0.01      0.01      0.64         0.01
  WS02004406WS02004407        0.01      0.01      1.71      0.01         0.01
  WS02004405WS02004406        1.71      1.74      1.71      1.98         1.71
  WS02004404WS02004405        1.74      1.76      1.74      6.43         1.73
  WS02004403WS02004404        1.40      1.40      1.76      0.01         0.01
  WS02004402WS02004403        1.37      1.37      1.40      1.20         1.20
  WS02003072WS02003073        0.01      0.01      0.01      5.81         0.01
  HS02004876HS02004881        0.01      0.01      0.01      0.86         0.01
  HS02004817HS02004824        0.01      0.01      0.32      0.01         0.01
  HS02004785HS02004788        0.01      0.01      0.01      0.81         0.01
  HS02004480HS02004478        0.01      0.01      0.01      1.81         0.01
  HS02004817HS02004807        0.01      0.01      0.32      0.01         0.01
  YS02001759YS02001757        6.34      6.34      6.36      0.01         0.01
  YS02001762YS02001759        6.34      6.34      6.34      0.01         0.01
  YS02001765YS02001762        6.34      6.34      6.34      0.01         0.01
  YS02001770YS02001767        6.33      6.33      6.33      1.22         0.55
  YS02001774YS02001770        6.33      6.33      6.34      0.01         0.01
  YS02001779YS02001774        6.31      6.31      6.34      0.01         0.01
  YS02001649YS02001757        6.34      6.34      6.36      0.01         0.01
  YS02001767YS02001765        6.33      6.33      6.34      0.01         0.01
  YS02006561YS02001783        2.42      2.42      2.93      0.01         0.01
  YS02001783YS02001784        2.92      2.93      3.02      2.81         2.74
  YS02001784YS02001785        2.88      3.02      2.88      3.51         2.87
  YS02001788YS02001790        2.75      2.75      4.01      0.01         0.01
  YS02001790YS02001791        4.01      4.01      4.04      2.33         2.17
  YS02001791YS02001793        4.04      4.04      4.12      0.01         0.01
  YS02001910YS02001907        2.74      2.74      3.04      0.01         0.01
  YS02001786YS02001788        2.75      2.88      2.75      3.20         2.75
  YS02001915YS02001910        2.56      2.56      2.74      0.01         0.01
  YS02001918YS02001915        2.33      2.33      2.56      0.01         0.01
  YS02001923YS02001920        2.16      2.16      2.37      0.01         0.01
  YS02001926YS02001923        0.01      0.01      0.01      0.01         0.01
  YS02001929YS02001926        0.01      0.01      0.01      0.01         0.01
  YS02001920YS02001918        2.33      2.33      2.37      0.01         0.01
  YS02001629YS02163301        6.33      6.33      6.33      0.01         0.01
  YS02001619YS02001622        6.31      6.31      6.31      0.01         0.01
  YS02001622YS02001625        6.31      6.31      6.32      0.01         0.01
  YS02001625YS02001629        6.31      6.31      6.32      0.01         0.01
  YS02163301YS02001633        6.33      6.33      6.33      0.01         0.01
  YS02163601YS02164001        6.33      6.33      6.34      0.01         0.01
  YS02164001YS02001641        6.33      6.33      6.34      0.01         0.02
  YS02001641YS02001644        6.34      6.34      6.34      3.05         3.19
  YS02001647YS02001649        6.32      6.32      6.34      0.01         0.01
  YS02006553YS02006556        2.90      2.90      3.08      0.01         0.01
  YS02006556YS02006558        2.96      2.96      3.13      0.01         0.01
  YSB6556YSB1171              0.01      0.01      0.43      0.01         0.01
  YS02001907YS02006553        3.54      3.54      3.73      0.01         0.01
  YS02006558YS02006561        2.60      2.88      2.60      3.40         2.60
  YS02001633YS02163601        6.33      6.33      6.34      0.01         0.01
  YS02001644YS02001647        6.32      6.32      6.34      0.01         0.01
  YS02001745YS02001748        0.59      0.59      6.28      0.01         0.01
  YS02001748YS02001751        6.29      6.29      6.30      0.01         0.01
  YS02001751YS02001754        6.30      6.30      6.31      0.01         0.01
  YS02001754YS02001757        6.31      6.31      6.36      0.01         0.01
  YS02001882YS02001884        2.57      2.57      2.60      0.01         0.01
  YS02001884YS02001887        2.65      2.65      2.68      0.01         0.01
  YS02001890YS02001895        2.54      2.54      2.76      0.01         0.01
  YS02001895YS02001898        2.53      2.53      2.54      0.01         0.01
  YS02001898YS02001901        2.55      2.55      2.64      0.01         0.01
  YS02001901YS02001904        2.62      2.62      2.64      0.01         0.01
  YS02001904YS02001907        2.62      2.62      3.10      0.01         0.01
  YS02001887YS02001890        2.70      2.70      2.73      1.55         0.01
  YS02001652YS02001649        6.32      6.32      6.34      0.01         0.01
  YS02001655YS02001652        6.30      6.30      6.31      0.01         0.01
  YS02001658YS02001655        6.29      6.29      6.30      0.01         0.01
  YS02001661YS02001658        1.04      1.04      6.29      0.01         0.01
  YS02001664YS02001661        0.01      0.01      2.60      0.01         0.01
  YSB1174YSB1171              0.01      0.01      0.16      0.01         0.01
  YS02001793JiankangQianchi        4.10      4.10      5.93      0.01         0.01
  YS02001757CaochengTiaoxuchi        5.87      5.87      6.36      0.01         0.01
  3                           0.01      0.01      0.10      0.10         0.01
  
  
  ***************
  Pumping Summary
  ***************
  
  ---------------------------------------------------------------------------------------------------------
                                                  Min       Avg       Max     Total     Power    % Time Off
                        Percent   Number of      Flow      Flow      Flow    Volume     Usage    Pump Curve
  Pump                 Utilized   Start-Ups       LPS       LPS       LPS  10^6 ltr     Kw-hr    Low   High
  ---------------------------------------------------------------------------------------------------------
  CC-Pump-1               63.83           7      0.00    149.27    200.00     2.640      2.92    0.0    3.1
  CC-Pump-2               54.17           8      0.00    130.00    200.00     1.989      1.93    0.0    1.8
  JK-Pump-1               72.34           5      0.00    217.54    300.00     3.885     29.48    0.0    0.0
  JK-Pump-2               76.59           8      0.00    204.61    300.00     3.886     30.81    0.0    0.0
  XR-Pump-1               93.61           7      0.00     66.62     95.00     1.796     12.80    0.0    0.0
  XR-Pump-2               87.22           8      0.00     65.02     95.00     1.625     12.88    0.0    0.0
  XR-Pump-3               95.74           6      0.00     75.29     95.00     2.052     14.10    0.0    0.0
  XR-Pump-4               93.61           7      0.00     78.46     95.00     2.023     14.17    0.0    0.0
  

  Analysis begun on:  Sat Dec 25 05:22:26 2021
  Analysis ended on:  Sat Dec 25 05:22:30 2021
  Total elapsed time: 00:00:04