
  EPA STORM WATER MANAGEMENT MODEL - VERSION 5.1 (Build 5.3.0.dev0)
  --------------------------------------------------------------

  WARNING 04: minimum elevation drop used for Conduit WS02004404WS02004405
  WARNING 03: negative offset ignored for Link YS02001904YS02001907
  
  *********************************************************
  NOTE: The summary statistics displayed in this report are
  based on results found at every computational time step,  
  not just on results from each reporting time step.
  *********************************************************
  
  ****************
  Analysis Options
  ****************
  Flow Units ............... LPS
  Process Models:
    Rainfall/Runoff ........ YES
    RDII ................... NO
    Snowmelt ............... NO
    Groundwater ............ NO
    Flow Routing ........... YES
    Ponding Allowed ........ NO
    Water Quality .......... NO
  Infiltration Method ...... HORTON
  Flow Routing Method ...... DYNWAVE
  Surcharge Method ......... EXTRAN
  Starting Date ............ 08/28/2015 08:00:00
  Ending Date .............. 08/28/2015 15:50:00
  Antecedent Dry Days ...... 8.0
  Report Time Step ......... 00:01:00
  Wet Time Step ............ 00:01:00
  Dry Time Step ............ 00:01:00
  Routing Time Step ........ 5.00 sec
  Variable Time Step ....... YES
  Maximum Trials ........... 8
  Number of Threads ........ 4
  Head Tolerance ........... 0.001500 m
  
  
  **************************        Volume         Depth
  Runoff Quantity Continuity     hectare-m            mm
  **************************     ---------       -------
  Total Precipitation ......        10.887        23.836
  Evaporation Loss .........         0.000         0.000
  Infiltration Loss ........         2.344         5.132
  Surface Runoff ...........         7.303        15.990
  Final Storage ............         1.241         2.717
  Continuity Error (%) .....        -0.012
  
  
  **************************        Volume        Volume
  Flow Routing Continuity        hectare-m      10^6 ltr
  **************************     ---------     ---------
  Dry Weather Inflow .......         0.616         6.165
  Wet Weather Inflow .......         7.301        73.014
  Groundwater Inflow .......         0.000         0.000
  RDII Inflow ..............         0.000         0.000
  External Inflow ..........         0.102         1.024
  External Outflow .........         2.600        26.004
  Flooding Loss ............         4.917        49.175
  Evaporation Loss .........         0.000         0.000
  Exfiltration Loss ........         0.000         0.000
  Initial Stored Volume ....         0.076         0.761
  Final Stored Volume ......         0.644         6.438
  Continuity Error (%) .....        -0.808
  
  
  *************************
  Highest Continuity Errors
  *************************
  Node YS02001884 (12.45%)
  Node HS02004842 (8.73%)
  Node JK-storage (-4.51%)
  Node HS02004817 (1.69%)
  Node YSB1171 (1.47%)
  
  
  ***************************
  Time-Step Critical Elements
  ***************************
  Link 3 (65.41%)
  Link WS02006252WS02006251 (27.95%)
  Link WS02006238WS02006235 (2.32%)
  
  
  ********************************
  Highest Flow Instability Indexes
  ********************************
  Link WS02006113WS02006111 (32)
  Link YS02163601YS02164001 (31)
  Link YS02163301YS02001633 (31)
  Link YS02001629YS02163301 (30)
  Link YS02001619YS02001622 (29)
  
  
  *************************
  Routing Time Step Summary
  *************************
  Minimum Time Step           :     0.48 sec
  Average Time Step           :     0.72 sec
  Maximum Time Step           :     5.00 sec
  Percent in Steady State     :    -0.00
  Average Iterations per Step :     3.80
  Percent Not Converging      :    12.03
  
  
  ***************************
  Subcatchment Runoff Summary
  ***************************
  
  ------------------------------------------------------------------------------------------------------------------------------
                            Total      Total      Total      Total     Imperv       Perv      Total       Total     Peak  Runoff
                           Precip      Runon       Evap      Infil     Runoff     Runoff     Runoff      Runoff   Runoff   Coeff
  Subcatchment                 mm         mm         mm         mm         mm         mm         mm    10^6 ltr      LPS
  ------------------------------------------------------------------------------------------------------------------------------
  sub0                      23.84       0.00       0.00       1.03      20.90       0.64      21.54        0.02     4.74   0.904
  sub1                      23.84       0.00       0.00       1.74      19.95       0.88      20.83        0.14    30.53   0.874
  sub2                      23.84       0.00       0.00       6.87      14.10       1.95      16.05        0.15    28.29   0.673
  sub3                      23.84       0.00       0.00       7.14      14.06       1.68      15.74        0.35    61.76   0.660
  sub4                      23.84       0.00       0.00       1.87      19.78       0.75      20.54        0.43    72.83   0.862
  sub5                      23.84       0.00       0.00       1.08      20.85       0.59      21.44        0.24    54.28   0.899
  sub7                      23.84       0.00       0.00       1.37      20.44       0.77      21.21        0.07    17.57   0.890
  sub8                      23.84       0.00       0.00       1.38      20.42       0.76      21.19        0.14    32.08   0.889
  sub9                      23.84       0.00       0.00       1.39      20.42       0.76      21.18        0.10    23.95   0.889
  sub10                     23.84       0.00       0.00       1.24      20.63       0.67      21.30        0.23    53.40   0.894
  sub11                     23.84       0.00       0.00       1.22      20.65       0.69      21.34        0.25    59.71   0.895
  sub12                     23.84       0.00       0.00       1.98      19.55       1.11      20.66        0.18    46.17   0.867
  sub14                     23.84       0.00       0.00       1.39      20.42       0.76      21.18        0.20    47.08   0.888
  sub15                     23.84       0.00       0.00       5.16      15.70       1.99      17.70        0.30    64.58   0.742
  sub16                     23.84       0.00       0.00       5.46      15.05       2.40      17.45        0.18    41.69   0.732
  sub17                     23.84       0.00       0.00       5.32      15.27       2.31      17.58        0.15    34.22   0.738
  sub22                     23.84       0.00       0.00       7.63      12.80       2.62      15.42        0.97   202.91   0.647
  sub23                     23.84       0.00       0.00       6.37      14.15       2.45      16.60        0.79   171.10   0.696
  sub60                     23.84       0.00       0.00       2.46      17.68       0.40      18.08        5.48   635.50   0.759
  sub61                     23.84       0.00       0.00       3.48      17.44       0.57      18.00        5.55   687.97   0.755
  sub62                     23.84       0.00       0.00       1.52      19.11       0.39      19.50        5.99   726.55   0.818
  sub63                     23.84       0.00       0.00       6.22      15.11       0.70      15.81        4.78   606.27   0.663
  sub64                     23.84       0.00       0.00       3.15      17.01       0.42      17.43        5.30   611.50   0.731
  sub65                     23.84       0.00       0.00       2.70      17.34       0.40      17.73        5.45   625.37   0.744
  sub66                     23.84       0.00       0.00       6.42      14.44       0.49      14.93        4.58   541.58   0.626
  sub67                     23.84       0.00       0.00       1.46      19.71       0.45      20.16        6.22   787.40   0.846
  sub68                     23.84       0.00       0.00       2.78      18.22       0.56      18.78        5.78   724.10   0.788
  sub69                     23.84       0.00       0.00       2.86      18.50       0.72      19.22        4.49   586.55   0.806
  sub70                     23.84      19.62       0.00       9.95      26.14       3.78      29.92        6.85   801.71   0.689
  sub71                     23.84       0.00       0.00       1.54      18.81       0.36      19.18        4.53   536.91   0.805
  sub72                     23.84       0.00       0.00       1.45      16.32       0.22      16.55        3.37   330.66   0.694
  sub73                     23.84      29.13       0.00       9.95      31.58       5.28      36.86        8.66   884.85   0.696
  sub74                     23.84       0.00       0.00      17.30       5.48       0.57       6.05        2.42   323.16   0.254
  
  
  ******************
  Node Depth Summary
  ******************
  
  ---------------------------------------------------------------------------------
                                 Average  Maximum  Maximum  Time of Max    Reported
                                   Depth    Depth      HGL   Occurrence   Max Depth
  Node                 Type       Meters   Meters   Meters  days hr:min      Meters
  ---------------------------------------------------------------------------------
  WS02001211           JUNCTION     0.69     0.80     5.64     0  02:41        0.80
  WS02001212           JUNCTION     0.42     0.52     5.59     0  02:41        0.52
  WS02001213           JUNCTION     0.67     0.79     5.55     0  01:47        0.79
  WS02003069           JUNCTION     0.49     0.67     5.25     0  01:46        0.67
  WS02003072           JUNCTION     0.56     0.72     5.09     0  01:47        0.72
  WS02003073           JUNCTION     0.34     0.45     4.51     0  01:47        0.45
  WS02003060           JUNCTION     0.44     0.59     5.52     0  01:46        0.59
  WS02003066           JUNCTION     0.27     0.37     5.93     0  01:43        0.37
  WS02003059           JUNCTION     0.72     0.85     5.54     0  01:46        0.85
  WS02003067           JUNCTION     0.63     0.81     6.13     0  01:43        0.81
  WS02004401           JUNCTION     0.78     1.18     7.18     0  01:36        1.17
  WS02004402           JUNCTION     0.80     1.18     7.14     0  01:36        1.17
  WS02004403           JUNCTION     0.82     1.16     7.09     0  01:36        1.15
  WS02004404           JUNCTION     0.89     1.21     7.06     0  01:36        1.20
  WS02004406           JUNCTION     0.88     1.14     6.97     0  01:36        1.14
  WS02004409           JUNCTION     0.58     0.91     6.68     0  01:42        0.91
  WS02004410           JUNCTION     0.60     0.90     6.62     0  01:42        0.90
  WS02004411           JUNCTION     0.61     0.89     6.57     0  01:42        0.89
  WS02004412           JUNCTION     0.62     0.87     6.51     0  01:43        0.87
  WS02004413           JUNCTION     0.77     1.00     6.47     0  01:43        1.00
  WS02004405           JUNCTION     0.88     1.18     7.03     0  01:36        1.18
  WS02006109           JUNCTION     0.87     1.39     8.01     0  01:41        1.38
  WS02006110           JUNCTION     0.83     1.22     7.81     0  01:41        1.22
  WS02006111           JUNCTION     0.30     0.75     7.46     0  01:37        0.75
  WS02006112           JUNCTION     0.97     1.48     7.36     0  01:37        1.47
  WS02006113           JUNCTION     0.40     0.73     7.62     0  01:37        0.73
  WS02006115           JUNCTION     0.68     1.15     7.29     0  01:36        1.14
  WS02006116           JUNCTION     0.76     1.20     7.24     0  01:35        1.19
  WS02006230           JUNCTION     0.88     1.54     8.29     0  01:41        1.54
  WS02006231           JUNCTION     0.61     1.18     8.30     0  01:41        1.17
  WS02006232           JUNCTION     0.74     1.26     8.30     0  01:40        1.25
  WS02006234           JUNCTION     0.66     1.14     8.30     0  01:40        1.13
  WS02006235           JUNCTION     0.68     1.14     8.31     0  01:41        1.13
  WS02006238           JUNCTION     0.71     1.16     8.31     0  01:41        1.15
  WS02006240           JUNCTION     0.60     1.03     8.32     0  01:40        1.02
  WS02006242           JUNCTION     0.65     1.12     8.39     0  01:32        1.06
  WS02006243           JUNCTION     0.52     1.10     8.52     0  01:32        0.91
  WS02006245           JUNCTION     0.49     1.04     8.52     0  01:33        0.86
  WS02006247           JUNCTION     0.50     1.04     8.54     0  01:33        0.85
  WS02006248           JUNCTION     0.44     0.77     8.36     0  01:40        0.77
  WS02006249           JUNCTION     0.46     0.77     8.36     0  01:40        0.77
  WS02006239           JUNCTION     0.66     1.10     8.31     0  01:41        1.10
  WS02006251           JUNCTION     0.46     0.89     8.56     0  01:40        0.89
  WS02006252           JUNCTION     0.37     0.59     8.84     0  04:37        0.59
  WS02006253           JUNCTION     0.48     0.93     8.57     0  01:41        0.93
  WS02006256           JUNCTION     1.11     1.23     8.17     0  02:00        1.23
  WS02004138           JUNCTION     0.16     0.19     7.44     0  07:49        0.19
  WS02004407           JUNCTION     0.26     0.38     6.70     0  01:38        0.38
  WS02006228           JUNCTION     0.90     1.54     8.19     0  01:41        1.53
  WS02006229           JUNCTION     0.89     1.59     8.28     0  01:41        1.59
  WS02006280           JUNCTION     0.10     0.29     8.56     0  01:37        0.29
  WS02006284           JUNCTION     0.42     0.68     9.08     0  01:36        0.68
  WS02006287           JUNCTION     0.15     0.43     9.38     0  01:35        0.43
  WSF200               JUNCTION     0.26     0.42     5.65     0  01:45        0.42
  HS02004901           JUNCTION     0.17     0.40    10.23     0  01:33        0.40
  HS02004881           JUNCTION     0.02     0.06     9.09     0  01:36        0.06
  HS02004876           JUNCTION     0.06     0.18     9.21     0  01:36        0.18
  HS02004870           JUNCTION     0.03     0.11     9.39     0  01:36        0.11
  HS02004862           JUNCTION     0.03     0.12     9.50     0  01:37        0.12
  HS02004856           JUNCTION     0.09     0.16     9.59     0  01:37        0.16
  HS02004852           JUNCTION     0.02     0.09     9.60     0  01:37        0.09
  HS02004848           JUNCTION     0.02     0.08     9.68     0  01:37        0.08
  HS02004842           JUNCTION     0.34     0.41     9.68     0  01:37        0.41
  HS02004837           JUNCTION     0.04     0.10     9.68     0  01:37        0.10
  HS02004830           JUNCTION     0.05     0.13     9.60     0  01:36        0.13
  HS02004824           JUNCTION     0.04     0.17     9.57     0  01:35        0.17
  HS02004817           JUNCTION     0.48     0.74     9.59     0  01:36        0.74
  HS02004807           JUNCTION     0.17     0.41     9.58     0  01:36        0.40
  HS02004802           JUNCTION     0.20     0.44     9.56     0  01:36        0.44
  HS02004799           JUNCTION     0.18     0.51     9.72     0  01:34        0.51
  HS02004792           JUNCTION     0.06     0.24     9.76     0  01:33        0.24
  HS02004788           JUNCTION     0.05     0.17    10.07     0  01:34        0.17
  HS02004785           JUNCTION     0.08     0.27    10.17     0  01:33        0.27
  HS02004777           JUNCTION     0.19     0.41    10.21     0  01:33        0.41
  HS02004770           JUNCTION     0.16     0.39    10.22     0  01:33        0.39
  HS02004480           JUNCTION     0.13     0.42     9.66     0  01:34        0.42
  HS02004479           JUNCTION     0.17     0.46     9.66     0  01:34        0.46
  HS02004478           JUNCTION     0.10     0.32     9.54     0  01:36        0.32
  YS02001745           JUNCTION     0.83     1.03     8.55     0  03:01        1.03
  YS02001748           JUNCTION     1.25     2.27     9.35     0  01:32        1.45
  YS02001751           JUNCTION     1.43     2.20     9.08     0  01:32        1.63
  YS02001754           JUNCTION     1.69     2.18     8.79     0  01:32        1.88
  YS02001762           JUNCTION     1.89     2.07     8.47     0  03:01        2.07
  YS02001765           JUNCTION     1.84     2.01     8.46     0  03:01        2.01
  YS02001767           JUNCTION     1.80     1.97     8.45     0  03:01        1.97
  YS02001770           JUNCTION     1.79     1.95     8.44     0  02:34        1.95
  YS02001774           JUNCTION     1.86     2.01     8.43     0  01:31        1.99
  YS02001779           JUNCTION     1.59     1.68     8.37     0  01:31        1.68
  YS02001882           JUNCTION     0.89     1.66     8.38     0  01:37        1.63
  YS02001884           JUNCTION     0.99     1.76     8.37     0  01:37        1.73
  YS02001759           JUNCTION     1.92     2.11     8.47     0  03:01        2.11
  YS02001887           JUNCTION     1.06     1.82     8.36     0  01:58        1.81
  YS02001890           JUNCTION     1.09     1.81     8.32     0  01:37        1.81
  YS02001898           JUNCTION     0.85     1.59     8.32     0  01:37        1.56
  YS02001901           JUNCTION     0.97     1.69     8.30     0  01:37        1.67
  YS02001904           JUNCTION     0.94     1.65     8.28     0  01:37        1.63
  YS02001907           JUNCTION     1.27     1.96     8.25     0  01:37        1.96
  YS02001910           JUNCTION     1.07     2.04     8.55     0  01:37        1.80
  YS02001915           JUNCTION     0.87     2.00     8.72     0  01:37        1.62
  YS02001918           JUNCTION     0.60     1.81     8.88     0  01:37        1.33
  YS02001619           JUNCTION     1.38     1.61     8.54     0  01:31        1.50
  YS02001629           JUNCTION     1.73     1.85     8.40     0  01:31        1.85
  YS02001641           JUNCTION     1.83     1.98     8.42     0  01:32        1.94
  YS02001644           JUNCTION     1.83     1.92     8.35     0  01:32        1.92
  YS02001652           JUNCTION     1.69     2.16     8.76     0  01:39        1.93
  YS02001655           JUNCTION     1.46     2.18     9.03     0  01:52        1.75
  YS02001920           JUNCTION     0.69     2.14     9.15     0  01:37        1.41
  YS02001923           JUNCTION     0.50     2.03     9.29     0  01:38        1.18
  YS02001926           JUNCTION     0.49     1.90     9.35     0  01:38        1.00
  YS02001929           JUNCTION     0.32     1.78     9.47     0  01:38        0.73
  YS02001658           JUNCTION     1.18     2.30     9.44     0  01:39        1.52
  YS02001661           JUNCTION     0.94     2.46     9.86     0  01:39        1.35
  YS02001664           JUNCTION     0.43     0.68     8.60     0  01:33        0.66
  YS02001622           JUNCTION     1.40     1.62     8.52     0  01:32        1.51
  YS02001633           JUNCTION     1.83     2.00     8.45     0  01:32        1.97
  YS02001649           JUNCTION     1.89     2.05     8.44     0  01:33        2.05
  YS02001757           JUNCTION     2.02     2.20     8.46     0  03:01        2.20
  YS02001895           JUNCTION     0.85     1.58     8.32     0  01:37        1.56
  YS02001625           JUNCTION     1.68     1.78     8.38     0  01:31        1.78
  YS02163301           JUNCTION     1.76     1.93     8.44     0  01:31        1.90
  YS02163601           JUNCTION     1.87     2.07     8.46     0  01:32        2.01
  YS02164001           JUNCTION     1.81     2.00     8.45     0  01:32        1.94
  YS02001647           JUNCTION     1.67     1.81     8.42     0  01:33        1.79
  YSB1154              JUNCTION     0.31     0.61     9.67     0  01:34        0.61
  YSB6556              JUNCTION     0.20     0.50     9.67     0  01:34        0.50
  YSB1174              JUNCTION     0.26     0.56     9.67     0  01:34        0.56
  YSB1171              JUNCTION     0.46     0.76     9.67     0  01:34        0.76
  YS02006553           JUNCTION     1.27     2.19     8.47     0  01:37        1.97
  YS02006561           JUNCTION     0.56     1.95     8.61     0  01:37        1.09
  YS02006556           JUNCTION     1.24     2.39     8.70     0  01:37        1.94
  YS02006558           JUNCTION     1.28     2.50     8.77     0  01:37        1.98
  YS02001783           JUNCTION     0.84     2.35     8.49     0  01:37        1.48
  YS02001784           JUNCTION     0.84     2.28     8.35     0  01:37        1.42
  YS02001786           JUNCTION     0.75     2.17     8.20     0  01:37        1.43
  YS02001788           JUNCTION     0.66     2.28     8.26     0  01:37        2.28
  YS02001790           JUNCTION     0.79     1.96     7.60     0  01:36        1.37
  YS02001791           JUNCTION     0.77     2.48     7.95     0  01:36        1.28
  YS02001793           JUNCTION     1.08     2.85     7.69     0  05:12        1.80
  WS02004139           JUNCTION     0.63     0.74     5.65     0  02:40        0.74
  WSC                  OUTFALL      0.34     0.45     1.12     0  01:48        0.45
  3                    OUTFALL      0.14     0.23     6.23     0  02:00        0.23
  4                    OUTFALL      0.06     0.30     7.30     0  01:39        0.30
  5                    OUTFALL      0.00     0.00     5.00     0  00:00        0.00
  JK-storage           STORAGE      3.91     5.80     6.60     0  01:37        5.80
  CC-storage           STORAGE      1.23     1.46     8.46     0  03:07        1.46
  XR-storage           STORAGE      7.34     7.72     5.72     0  01:50        7.72
  
  
  *******************
  Node Inflow Summary
  *******************
  
  -------------------------------------------------------------------------------------------------
                                  Maximum  Maximum                  Lateral       Total        Flow
                                  Lateral    Total  Time of Max      Inflow      Inflow     Balance
                                   Inflow   Inflow   Occurrence      Volume      Volume       Error
  Node                 Type           LPS      LPS  days hr:min    10^6 ltr    10^6 ltr     Percent
  -------------------------------------------------------------------------------------------------
  WS02001211           JUNCTION      7.35   387.53     0  07:50       0.207        7.55       0.546
  WS02001212           JUNCTION      0.00   387.41     0  07:50           0        7.51       0.306
  WS02001213           JUNCTION      0.00   387.44     0  07:50           0        7.48       0.364
  WS02003069           JUNCTION      0.32  1178.38     0  01:46     0.00902        18.2       0.177
  WS02003072           JUNCTION      0.00  1178.36     0  01:47           0        18.2       0.215
  WS02003073           JUNCTION      1.82  1180.27     0  01:47      0.0514        18.2       0.244
  WS02003060           JUNCTION     16.53  1178.05     0  01:46       0.466        18.3       0.167
  WS02003066           JUNCTION      0.00   878.38     0  01:43           0        10.4       0.038
  WS02003059           JUNCTION      0.00   387.69     0  07:50           0        7.46       0.541
  WS02003067           JUNCTION      0.00   878.43     0  01:43           0        10.4       0.082
  WS02004401           JUNCTION      0.00   878.57     0  01:38           0        10.6       0.175
  WS02004402           JUNCTION      0.00   878.63     0  01:38           0        10.6       0.167
  WS02004403           JUNCTION      0.00   878.69     0  01:38           0        10.6       0.155
  WS02004404           JUNCTION      0.16   878.89     0  01:38     0.00457        10.6       0.118
  WS02004406           JUNCTION      0.00   878.97     0  01:38           0        10.5       0.289
  WS02004409           JUNCTION      0.00   878.74     0  01:38           0        10.5       0.131
  WS02004410           JUNCTION      0.00   878.55     0  01:42           0        10.5       0.151
  WS02004411           JUNCTION      0.00   878.48     0  01:42           0        10.5       0.158
  WS02004412           JUNCTION      0.00   878.44     0  01:42           0        10.4       0.174
  WS02004413           JUNCTION      0.00   878.43     0  01:43           0        10.4       0.264
  WS02004405           JUNCTION      0.04   878.94     0  01:38     0.00107        10.6       0.178
  WS02006109           JUNCTION      1.23   852.99     0  01:35      0.0347        10.6       0.145
  WS02006110           JUNCTION      0.00   852.99     0  01:35           0        10.5       0.163
  WS02006111           JUNCTION      0.00   849.30     0  01:41           0        10.5       0.026
  WS02006112           JUNCTION     34.22   878.85     0  01:38       0.151        10.7       0.245
  WS02006113           JUNCTION      0.00   852.97     0  01:35           0        10.5       0.072
  WS02006115           JUNCTION      0.00   878.92     0  01:38           0        10.6       0.162
  WS02006116           JUNCTION      0.00   878.66     0  01:38           0        10.6       0.141
  WS02006230           JUNCTION     10.28   400.49     0  05:02        0.29        6.52       0.167
  WS02006231           JUNCTION      0.00   390.78     0  05:01           0        6.22       0.087
  WS02006232           JUNCTION      0.00   390.79     0  05:01           0        6.21       0.200
  WS02006234           JUNCTION      0.00   393.06     0  04:33           0         6.2       0.085
  WS02006235           JUNCTION      0.00   394.42     0  04:32           0        6.36       0.104
  WS02006238           JUNCTION      0.00   337.66     0  03:50           0        4.37       0.117
  WS02006240           JUNCTION      0.00   334.30     0  03:50           0        4.34       0.114
  WS02006242           JUNCTION      0.00   334.85     0  03:50           0        4.34       0.163
  WS02006243           JUNCTION      0.00   333.76     0  04:31           0        4.32      -0.242
  WS02006245           JUNCTION      0.00   339.00     0  04:31           0        4.32       0.134
  WS02006247           JUNCTION      0.00   346.86     0  04:31           0        4.32       0.009
  WS02006248           JUNCTION      0.00   353.13     0  04:30           0        4.31      -0.060
  WS02006249           JUNCTION      0.00   574.78     0  01:41           0        5.77       0.074
  WS02006239           JUNCTION      0.00   335.83     0  03:50           0        4.35       0.141
  WS02006251           JUNCTION      0.08   574.38     0  01:41     0.00217        5.79      -0.006
  WS02006252           JUNCTION      0.00   400.00     0  01:40           0        4.93       0.002
  WS02006253           JUNCTION      4.74   178.63     0  01:36      0.0174       0.858      -0.068
  WS02006256           JUNCTION      0.00   600.00     0  02:20           0        8.38       0.034
  WS02004138           JUNCTION      0.00   380.00     0  07:30           0        7.38       0.082
  WS02004407           JUNCTION      0.00   879.07     0  01:38           0        10.5       0.058
  WS02006228           JUNCTION      0.00   851.79     0  01:35           0        10.5       0.107
  WS02006229           JUNCTION      0.00   857.47     0  01:35           0        10.6       0.116
  WS02006280           JUNCTION      0.00   821.07     0  01:36           0        4.12       0.005
  WS02006284           JUNCTION      0.10   821.03     0  01:36      0.0027        4.12       0.022
  WS02006287           JUNCTION      0.00   820.93     0  01:36           0        4.12       0.018
  WSF200               JUNCTION      0.00   878.30     0  01:43           0        10.4       0.035
  HS02004901           JUNCTION     41.69    41.69     0  01:31       0.183       0.183       0.971
  HS02004881           JUNCTION     17.57   174.51     0  01:36      0.0714       0.818       0.071
  HS02004876           JUNCTION     30.53   157.86     0  01:36       0.138       0.747       0.075
  HS02004870           JUNCTION     32.08   127.64     0  01:36       0.135       0.609       0.017
  HS02004862           JUNCTION     28.49    96.84     0  01:37       0.155       0.474       0.037
  HS02004856           JUNCTION     23.95    68.40     0  01:36       0.102        0.32       0.452
  HS02004852           JUNCTION      0.00    45.39     0  01:37           0       0.218       0.028
  HS02004848           JUNCTION     61.76    61.76     0  01:40       0.354       0.354       0.013
  HS02004842           JUNCTION      0.00    18.52     0  01:52           0       0.149       9.568
  HS02004837           JUNCTION     59.75    74.34     0  01:37       0.414        0.55       0.146
  HS02004830           JUNCTION      0.15    74.45     0  01:37     0.00423        0.54       0.229
  HS02004824           JUNCTION     72.88   147.20     0  01:40        0.43       0.969       0.056
  HS02004817           JUNCTION      0.60   150.39     0  01:40      0.0169       0.985       1.721
  HS02004807           JUNCTION     59.71   205.16     0  01:38       0.248        1.22       0.359
  HS02004802           JUNCTION      0.00   204.79     0  01:39           0        1.22       0.327
  HS02004799           JUNCTION     47.08   525.52     0  01:33       0.201         2.5       0.119
  HS02004792           JUNCTION    203.19   478.63     0  01:33       0.982         2.3       0.016
  HS02004788           JUNCTION     66.25   277.11     0  01:34       0.351        1.32       0.028
  HS02004785           JUNCTION      0.15   210.95     0  01:33     0.00423       0.971       0.053
  HS02004777           JUNCTION      0.03   211.17     0  01:32    0.000846       0.971       0.540
  HS02004770           JUNCTION    171.10   212.06     0  01:32       0.791       0.972       0.316
  HS02004480           JUNCTION      0.00   623.63     0  01:34           0        2.92       0.035
  HS02004479           JUNCTION      0.00    98.35     0  01:34           0       0.432       0.172
  HS02004478           JUNCTION      0.00   820.91     0  01:35           0        4.12       0.008
  YS02001745           JUNCTION    635.50   635.50     0  03:01        5.48        5.48       0.218
  YS02001748           JUNCTION      0.04   636.28     0  03:01     0.00127        5.47       0.411
  YS02001751           JUNCTION      0.01   636.31     0  03:01     0.00031        5.45       0.443
  YS02001754           JUNCTION      0.26   636.62     0  03:01     0.00733        5.44       0.447
  YS02001762           JUNCTION      0.00   384.86     0  01:41           0        2.88       0.735
  YS02001765           JUNCTION      0.00   384.87     0  01:41           0        2.87       0.849
  YS02001767           JUNCTION      0.54   384.86     0  01:41      0.0151         2.9       1.245
  YS02001770           JUNCTION    726.70  1035.36     0  03:01           6        7.34       0.425
  YS02001774           JUNCTION      0.00   851.17     0  02:55           0        5.61       0.444
  YS02001779           JUNCTION      0.01   851.17     0  02:55    0.000141        5.58       0.273
  YS02001882           JUNCTION      0.00    47.02     0  01:34           0      0.0193      15.025
  YS02001884           JUNCTION      0.00    60.92     0  01:32           0      0.0546      14.224
  YS02001759           JUNCTION    688.01   891.12     0  01:47        5.55        7.05       0.322
  YS02001887           JUNCTION    787.85   787.85     0  03:01        6.23        6.26       0.147
  YS02001890           JUNCTION      0.00   787.88     0  03:01           0        6.21       0.160
  YS02001898           JUNCTION      0.00   560.33     0  01:37           0        5.24       0.060
  YS02001901           JUNCTION      0.00   560.74     0  01:37           0        5.23       0.148
  YS02001904           JUNCTION      0.00   561.03     0  01:37           0        5.23       0.130
  YS02001907           JUNCTION      0.00  1384.53     0  03:01           0        13.2       0.190
  YS02001910           JUNCTION      0.00   868.08     0  03:01           0        7.97       0.161
  YS02001915           JUNCTION    536.93   868.05     0  03:01        4.53        8.02       0.086
  YS02001918           JUNCTION      0.00   390.19     0  01:39           0        3.53       0.049
  YS02001619           JUNCTION    541.58   541.58     0  03:01        4.58        4.58       0.266
  YS02001629           JUNCTION      0.00   400.81     0  01:31           0        1.87       1.497
  YS02001641           JUNCTION      0.00   463.01     0  01:32           0        5.95       0.353
  YS02001644           JUNCTION    611.54  1882.09     0  03:01         5.3          18       0.144
  YS02001652           JUNCTION      0.00   607.55     0  03:01           0        4.73       0.476
  YS02001655           JUNCTION      0.15   607.54     0  03:01     0.00434        4.76       0.536
  YS02001920           JUNCTION      2.87   390.22     0  01:39      0.0809        3.51       0.095
  YS02001923           JUNCTION      0.04   362.79     0  01:38     0.00106        3.41       0.031
  YS02001926           JUNCTION      0.05   330.82     0  03:01     0.00147        3.39       0.098
  YS02001929           JUNCTION    330.66   330.66     0  03:01        3.37        3.37       0.021
  YS02001658           JUNCTION      0.00   607.37     0  03:01           0        4.77       0.477
  YS02001661           JUNCTION      0.00   804.21     0  01:47           0        5.44       0.095
  YS02001664           JUNCTION    606.27   606.27     0  03:01        4.78        5.44       0.114
  YS02001622           JUNCTION      0.00   541.60     0  03:01           0        4.57       0.695
  YS02001633           JUNCTION    625.57   625.57     0  03:01        5.46        6.64       0.483
  YS02001649           JUNCTION      0.00  1293.18     0  03:01           0        9.49       0.388
  YS02001757           JUNCTION      0.00  2172.80     0  01:48           0        12.9       0.706
  YS02001895           JUNCTION      0.00   559.88     0  01:37           0        5.24       0.122
  YS02001625           JUNCTION      0.00   743.58     0  03:01           0        5.19       0.773
  YS02163301           JUNCTION      0.00   296.64     0  01:30           0        1.87       1.292
  YS02163601           JUNCTION      0.11   462.66     0  01:32      0.0031        5.95       0.504
  YS02164001           JUNCTION      0.00   462.48     0  01:32           0        5.94       0.337
  YS02001647           JUNCTION      0.00   846.70     0  03:17           0        7.65       0.370
  YSB1154              JUNCTION     54.28    54.28     0  01:34       0.243       0.243       0.595
  YSB6556              JUNCTION      0.00    54.36     0  01:35           0       0.244       0.519
  YSB1174              JUNCTION     46.17    46.17     0  01:30        0.18       0.181       0.711
  YSB1171              JUNCTION      0.00    98.46     0  01:34           0       0.431       1.495
  YS02006553           JUNCTION      0.00   699.81     0  03:50           0        7.64       0.210
  YS02006561           JUNCTION      0.00  1079.61     0  01:37           0        13.4       0.006
  YS02006556           JUNCTION      0.00   699.90     0  03:50           0        7.65       0.153
  YS02006558           JUNCTION    724.98  1080.00     0  01:37         5.8        13.4       0.042
  YS02001783           JUNCTION      0.00  1060.87     0  01:36           0        13.4       0.022
  YS02001784           JUNCTION      1.06  1061.90     0  01:36      0.0299        13.4       0.031
  YS02001786           JUNCTION      0.06  1061.70     0  01:36     0.00159        13.4       0.030
  YS02001788           JUNCTION      0.07  1044.23     0  01:36       0.002        13.4       0.016
  YS02001790           JUNCTION      0.15  1026.58     0  01:36     0.00437        13.4       0.022
  YS02001791           JUNCTION      0.00  1040.94     0  01:36           0        13.4       0.007
  YS02001793           JUNCTION      0.00  1009.67     0  05:12           0        13.4      -0.014
  WS02004139           JUNCTION      0.32   380.32     0  07:49     0.00905        7.38       0.599
  WSC                  OUTFALL       0.00  1180.53     0  01:48           0        18.2       0.000
  3                    OUTFALL       0.00   588.50     0  02:00           0        6.37       0.000
  4                    OUTFALL       0.00   442.59     0  01:40           0        1.45       0.000
  5                    OUTFALL       0.00     0.00     0  00:00           0           0       0.000 ltr
  JK-storage           STORAGE       0.00  1162.76     0  05:11           0        13.6      -4.312
  CC-storage           STORAGE       0.00  2172.93     0  01:48           0        8.87       0.742
  XR-storage           STORAGE    1408.02  1408.02     0  03:01        16.7        17.3      -0.001
  
  
  **********************
  Node Surcharge Summary
  **********************
  
  Surcharging occurs when water rises above the top of the highest conduit.
  ---------------------------------------------------------------------
                                               Max. Height   Min. Depth
                                   Hours       Above Crown    Below Rim
  Node                 Type      Surcharged         Meters       Meters
  ---------------------------------------------------------------------
  WS02004401           JUNCTION        1.31          0.182        1.478
  WS02004402           JUNCTION        1.63          0.177        1.563
  WS02004403           JUNCTION        1.64          0.158        1.872
  WS02004404           JUNCTION        1.76          0.206        2.574
  WS02004406           JUNCTION        1.71          0.142        2.308
  WS02004405           JUNCTION        1.73          0.183        2.617
  WS02006109           JUNCTION        3.34          0.571        1.249
  WS02006110           JUNCTION        1.96          0.311        1.539
  WS02006112           JUNCTION        2.09          0.480        1.200
  WS02006115           JUNCTION        0.66          0.138        2.112
  WS02006116           JUNCTION        0.72          0.140        2.150
  WS02006230           JUNCTION        1.74          0.463        1.107
  WS02006231           JUNCTION        1.84          0.465        1.065
  WS02006232           JUNCTION        3.44          0.561        0.919
  WS02006234           JUNCTION        2.09          0.421        0.819
  WS02006235           JUNCTION        2.86          0.432        0.858
  WS02006238           JUNCTION        3.15          0.444        0.986
  WS02006240           JUNCTION        2.07          0.318        1.072
  WS02006242           JUNCTION        2.76          0.392        0.428
  WS02006243           JUNCTION        1.52          0.394        0.376
  WS02006245           JUNCTION        0.75          0.326        0.524
  WS02006247           JUNCTION        0.73          0.330        0.430
  WS02006248           JUNCTION        0.22          0.053        0.327
  WS02006239           JUNCTION        2.36          0.362        0.928
  WS02006252           JUNCTION        2.26          0.193        0.907
  WS02006228           JUNCTION        3.28          0.706        1.494
  HS02004817           JUNCTION        0.32          0.038        1.702
  YS02001745           JUNCTION        0.53          0.034        1.316
  YS02001748           JUNCTION        6.28          1.190        0.000
  YS02001751           JUNCTION        6.30          1.200        0.000
  YS02001754           JUNCTION        6.31          1.133        0.017
  YS02001762           JUNCTION        6.34          1.066        0.084
  YS02001765           JUNCTION        6.34          1.012        0.088
  YS02001767           JUNCTION        6.33          0.966        0.064
  YS02001770           JUNCTION        6.33          0.920        0.000
  YS02001774           JUNCTION        6.34          1.009        0.041
  YS02001779           JUNCTION        6.31          0.680        0.000
  YS02001882           JUNCTION        2.56          0.664        0.166
  YS02001884           JUNCTION        2.59          0.695        0.175
  YS02001759           JUNCTION        6.35          1.107        0.103
  YS02001887           JUNCTION        2.67          0.770        0.180
  YS02001890           JUNCTION        2.70          0.760        0.000
  YS02001898           JUNCTION        2.52          0.556        0.184
  YS02001901           JUNCTION        2.64          0.695        0.175
  YS02001904           JUNCTION        2.62          0.649        0.201
  YS02001907           JUNCTION        3.03          0.950        0.000
  YS02001910           JUNCTION        2.74          1.039        0.061
  YS02001915           JUNCTION        2.56          1.000        0.000
  YS02001918           JUNCTION        2.33          0.810        0.000
  YS02001619           JUNCTION        6.31          0.610        0.000
  YS02001629           JUNCTION        6.31          0.470        0.000
  YS02001641           JUNCTION        6.34          0.979        0.121
  YS02001644           JUNCTION        6.34          0.920        0.000
  YS02001652           JUNCTION        6.31          1.130        0.000
  YS02001655           JUNCTION        6.30          1.184        0.016
  YS02001920           JUNCTION        2.37          1.140        0.000
  YS02001923           JUNCTION        0.01          0.820        0.000
  YS02001926           JUNCTION        0.01          0.900        0.000
  YS02001929           JUNCTION        0.01          0.780        0.000
  YS02001658           JUNCTION        6.29          1.300        0.000
  YS02001661           JUNCTION        1.18          1.390        0.000
  YS02001622           JUNCTION        6.31          0.620        0.000
  YS02001633           JUNCTION        6.33          0.981        0.079
  YS02001649           JUNCTION        6.34          1.050        0.000
  YS02001757           JUNCTION        6.36          1.203        0.007
  YS02001895           JUNCTION        2.54          0.578        0.172
  YS02001625           JUNCTION        6.32          0.780        0.000
  YS02163301           JUNCTION        6.33          0.928        0.102
  YS02163601           JUNCTION        6.34          1.066        0.014
  YS02164001           JUNCTION        6.33          0.996        0.104
  YS02001647           JUNCTION        6.32          0.807        0.093
  YS02006553           JUNCTION        3.08          1.187        0.003
  YS02006561           JUNCTION        2.43          1.150        0.000
  YS02006556           JUNCTION        2.90          1.350        0.000
  YS02006558           JUNCTION        2.87          1.400        0.000
  YS02001783           JUNCTION        2.93          1.548        0.052
  YS02001784           JUNCTION        3.00          1.478        0.012
  YS02001786           JUNCTION        2.89          1.367        0.063
  YS02001788           JUNCTION        2.87          1.480        0.000
  YS02001790           JUNCTION        3.43          1.157        0.000
  YS02001791           JUNCTION        3.51          1.677        0.243
  YS02001793           JUNCTION        3.68          1.855        0.745
  
  
  *********************
  Node Flooding Summary
  *********************
  
  Flooding refers to all water that overflows a node, whether it ponds or not.
  --------------------------------------------------------------------------
                                                             Total   Maximum
                                 Maximum   Time of Max       Flood    Ponded
                        Hours       Rate    Occurrence      Volume     Depth
  Node                 Flooded       LPS   days hr:min    10^6 ltr    Meters
  --------------------------------------------------------------------------
  YS02001748              0.01    126.80      0  01:32       0.000     0.000
  YS02001751              0.01     37.82      0  01:32       0.000     0.000
  YS02001770              0.62    184.18      0  03:01       0.167     0.000
  YS02001779              4.58    851.17      0  02:55       5.566     0.000
  YS02001890              1.66    271.47      0  03:01       0.962     0.000
  YS02001907              2.20   1136.84      0  03:01       5.539     0.000
  YS02001915              0.01     11.64      0  01:37       0.000     0.000
  YS02001918              0.01    166.04      0  01:37       0.000     0.000
  YS02001619              0.01     45.32      0  01:31       0.000     0.000
  YS02001629              0.01    369.22      0  01:31       0.005     0.000
  YS02001644              6.27   1882.06      0  03:01      17.102     0.000
  YS02001652              0.01     13.12      0  01:39       0.000     0.000
  YS02001920              0.01    116.70      0  01:37       0.000     0.000
  YS02001923              0.01    270.59      0  01:38       0.000     0.000
  YS02001926              0.01    153.02      0  01:38       0.000     0.000
  YS02001929              0.01    203.06      0  01:38       0.000     0.000
  YS02001658              0.01      6.26      0  01:39       0.000     0.000
  YS02001661              0.01    132.39      0  01:39       0.000     0.000
  YS02001622              0.01     10.94      0  01:32       0.000     0.000
  YS02001649              0.95    446.48      0  03:01       0.839     0.000
  YS02001625              2.88    743.56      0  03:01       3.937     0.000
  YS02006561              0.01    100.46      0  01:37       0.000     0.000
  YS02006556              0.01     15.63      0  01:37       0.000     0.000
  YS02006558              0.01     13.60      0  01:37       0.000     0.000
  YS02001788              0.01    219.75      0  01:37       0.000     0.000
  YS02001790              0.01    224.02      0  01:36       0.000     0.000
  JK-storage              3.22    972.04      0  02:50       5.898     0.000
  XR-storage              5.33   1132.48      0  03:01       9.159     0.000
  
  
  **********************
  Storage Volume Summary
  **********************
  
  --------------------------------------------------------------------------------------------------
                         Average     Avg  Evap Exfil       Maximum     Max    Time of Max    Maximum
                          Volume    Pcnt  Pcnt  Pcnt        Volume    Pcnt     Occurrence    Outflow
  Storage Unit           1000 m3    Full  Loss  Loss       1000 m3    Full    days hr:min        LPS
  --------------------------------------------------------------------------------------------------
  JK-storage               0.196      67     0     0         0.291     100       0  01:37     861.80
  CC-storage               3.423      22     0     0         4.070      26       0  03:07     400.00
  XR-storage               0.881      95     0     0         0.926     100       0  01:50     380.00
  
  
  ***********************
  Outfall Loading Summary
  ***********************
  
  -----------------------------------------------------------
                         Flow       Avg       Max       Total
                         Freq      Flow      Flow      Volume
  Outfall Node           Pcnt       LPS       LPS    10^6 ltr
  -----------------------------------------------------------
  WSC                  100.00    722.21   1180.53      18.185
  3                     93.48    304.54    588.50       6.369
  4                     53.95    121.02    442.59       1.451
  5                      0.00      0.00      0.00       0.000
  -----------------------------------------------------------
  System                61.86   1147.77   1955.16      26.004
  
  
  ********************
  Link Flow Summary
  ********************
  
  -----------------------------------------------------------------------------
                                 Maximum  Time of Max   Maximum    Max/    Max/
                                  |Flow|   Occurrence   |Veloc|    Full    Full
  Link                 Type          LPS  days hr:min     m/sec    Flow   Depth
  -----------------------------------------------------------------------------
  WS02003066WSF200     CONDUIT    878.30     0  01:43      3.05    0.15    0.31
  WS02006287WS02006284 CONDUIT    820.94     0  01:36      2.53    0.38    0.43
  WS02006284WS02006280 CONDUIT    821.07     0  01:36      2.76    0.34    0.40
  WS02006280WS02006229 CONDUIT    820.96     0  01:36      4.47    0.18    0.35
  WS02006229WS02006228 CONDUIT    851.79     0  01:35      1.69    2.82    1.00
  WS02006256WS02006235 CONDUIT    150.00     0  00:15      2.14    1.59    1.00
  WS02006253WS02006251 CONDUIT    200.25     0  01:34      0.77    0.60    1.00
  WS02006252WS02006251 CONDUIT    400.31     0  04:38      3.19    1.47    1.00
  WS02006251WS02006249 CONDUIT    574.78     0  01:41      1.49    1.66    1.00
  WS02006249WS02006248 CONDUIT    353.13     0  04:30      1.15    1.93    1.00
  WS02006248WS02006247 CONDUIT    346.86     0  04:31      1.11    0.76    1.00
  WS02006247WS02006245 CONDUIT    339.00     0  04:31      1.06    2.69    1.00
  WS02006245WS02006243 CONDUIT    333.76     0  04:31      1.06    0.99    1.00
  WS02006243WS02006242 CONDUIT    334.85     0  03:50      0.92    0.72    1.00
  WS02006242WS02006240 CONDUIT    334.30     0  03:50      0.89    1.33    1.00
  WS02006240WS02006239 CONDUIT    335.83     0  03:50      0.92    1.06    1.00
  WS02006239WS02006238 CONDUIT    337.66     0  03:50      0.89    1.08    1.00
  WS02006238WS02006235 CONDUIT    336.72     0  03:50      0.88    0.75    1.00
  WS02006235WS02006234 CONDUIT    393.06     0  04:33      1.04    4.15    1.00
  WS02006234WS02006232 CONDUIT    390.79     0  05:01      1.02    0.79    1.00
  WS02006232WS02006231 CONDUIT    390.78     0  05:01      1.07    0.82    1.00
  WS02006231WS02006230 CONDUIT    390.21     0  05:02      1.33    5.92    1.00
  WS02006230WS02006229 CONDUIT    400.18     0  05:02      1.04    8.91    1.00
  WS02006228WS02006109 CONDUIT    851.76     0  01:35      1.69    3.72    1.00
  WS02006116WS02004401 CONDUIT    878.57     0  01:38      1.12    1.21    1.00
  WS02006115WS02006116 CONDUIT    878.66     0  01:38      1.12    1.13    1.00
  WS02006113WS02006111 CONDUIT    849.30     0  01:41      2.68    1.02    0.93
  WS02006112WS02006115 CONDUIT    878.92     0  01:38      1.12    0.52    1.00
  WS02006111WS02006112 CONDUIT    849.55     0  01:42      1.82    0.40    0.96
  WS02006110WS02006113 CONDUIT    852.97     0  01:35      1.80    0.78    0.95
  WS02006109WS02006110 CONDUIT    852.99     0  01:35      1.70    1.64    1.00
  WS02004411WS02004412 CONDUIT    878.44     0  01:42      1.20    1.25    0.88
  WS02004401WS02004402 CONDUIT    878.63     0  01:38      1.12    1.05    1.00
  WS02004413WS02003067 CONDUIT    878.43     0  01:43      1.47    0.38    0.71
  WS02004412WS02004413 CONDUIT    878.43     0  01:43      1.15    0.59    0.93
  WS02004410WS02004411 CONDUIT    878.48     0  01:42      1.19    1.20    0.89
  WS02004409WS02004410 CONDUIT    878.55     0  01:42      1.18    1.14    0.90
  WS02004407WS02004409 CONDUIT    878.74     0  01:38      1.76    0.31    0.65
  WS02004406WS02004407 CONDUIT    879.07     0  01:38      1.52    0.39    0.69
  WS02004405WS02004406 CONDUIT    878.97     0  01:38      1.12    1.73    1.00
  WS02004404WS02004405 CONDUIT    878.90     0  01:38      1.12    8.61    1.00
  WS02004403WS02004404 CONDUIT    878.73     0  01:38      1.12    0.64    1.00
  WS02004402WS02004403 CONDUIT    878.69     0  01:38      1.12    1.26    1.00
  WS02004139WS02001211 CONDUIT    380.19     0  07:50      0.81    0.48    0.60
  WS02004138WS02004139 CONDUIT    380.00     0  07:49      3.34    0.08    0.44
  WS02003067WS02003066 CONDUIT    878.38     0  01:43      1.59    0.28    0.49
  WS02001213WS02003059 CONDUIT    387.69     0  07:50      0.78    0.64    0.81
  WS02001212WS02001213 CONDUIT    387.44     0  07:50      1.30    0.60    0.50
  WS02001211WS02001212 CONDUIT    387.41     0  07:50      0.77    0.30    0.66
  WS02003072WS02003073 CONDUIT   1178.45     0  01:47      1.87    2.55    0.54
  WS02003069WS02003072 CONDUIT   1178.36     0  01:47      1.75    0.57    0.58
  WS02003060WS02003069 CONDUIT   1178.06     0  01:46      1.97    0.46    0.52
  WS02003059WS02003060 CONDUIT    388.17     0  07:50      0.92    0.25    0.72
  HS02004901HS02004770 CONDUIT     40.99     0  01:33      0.10    0.15    0.57
  HS02004876HS02004881 CONDUIT    157.88     0  01:36      1.33    1.68    0.17
  HS02004870HS02004876 CONDUIT    127.61     0  01:36      0.90    0.08    0.20
  HS02004842HS02004848 CONDUIT     18.52     0  01:52      0.08    0.01    0.35
  HS02004837HS02004842 CONDUIT     18.98     0  01:52      0.42    0.01    0.36
  HS02004830HS02004837 CONDUIT     74.30     0  01:37      0.68    0.07    0.16
  HS02004824HS02004830 CONDUIT     75.02     0  01:38      0.62    0.10    0.21
  HS02004817HS02004824 CONDUIT    149.79     0  01:40      0.35    0.07    0.62
  HS02004770HS02004777 CONDUIT    211.14     0  01:32      0.52    0.39    0.58
  HS02004799HS02004480 CONDUIT    525.38     0  01:34      1.14    0.66    0.66
  HS02004792HS02004799 CONDUIT    478.54     0  01:33      1.27    0.29    0.54
  HS02004788HS02004792 CONDUIT    277.00     0  01:34      1.34    0.18    0.30
  HS02004785HS02004788 CONDUIT    210.88     0  01:34      0.96    1.59    0.31
  HS02004777HS02004785 CONDUIT    210.80     0  01:33      0.62    0.26    0.49
  HS02004480HS02004478 CONDUIT    623.56     0  01:34      1.66    2.63    0.54
  HS02004479HS02004480 CONDUIT     98.64     0  01:35      0.34    0.10    0.63
  HS02004862HS02004870 CONDUIT     96.84     0  01:37      0.86    0.10    0.16
  HS02004848HS02004852 CONDUIT     45.39     0  01:37      0.56    0.05    0.12
  HS02004856HS02004862 CONDUIT     68.36     0  01:37      0.64    0.07    0.15
  HS02004852HS02004856 CONDUIT     45.48     0  01:38      0.37    0.05    0.18
  HS02004802HS02004478 CONDUIT    205.90     0  01:39      0.56    0.18    0.54
  HS02004478WS02006287 CONDUIT    820.93     0  01:36      2.26    0.23    0.40
  HS02004817HS02004807 CONDUIT    150.86     0  01:41      0.28    0.09    0.79
  HS02004807HS02004802 CONDUIT    204.79     0  01:39      0.50    0.39    0.59
  YS02001759YS02001757 CONDUIT    891.40     0  01:47      1.13    0.63    1.00
  YS02001762YS02001759 CONDUIT    384.93     0  01:41      0.49    0.44    1.00
  YS02001765YS02001762 CONDUIT    384.86     0  01:41      0.49    0.36    1.00
  YS02001770YS02001767 CONDUIT    384.32     0  01:41      0.49    1.52    1.00
  YS02001774YS02001770 CONDUIT    851.17     0  02:55      1.08    0.54    1.00
  YS02001779YS02001774 CONDUIT    851.17     0  02:55      1.08    0.43    1.00
  YS02001649YS02001757 CONDUIT    903.74     0  01:46      1.15    0.55    1.00
  YS02001767YS02001765 CONDUIT    384.87     0  01:41      0.49    0.48    1.00
  YS02006561YS02001783 CONDUIT   1060.87     0  01:36      2.26    0.55    1.00
  YS02001783YS02001784 CONDUIT   1060.84     0  01:36      2.11    1.46    1.00
  YS02001784YS02001785 CONDUIT   1061.64     0  01:36      2.12    2.47    1.00
  YS02001788YS02001790 CONDUIT   1026.43     0  01:36      2.54    0.76    1.00
  YS02001790YS02001791 CONDUIT   1040.94     0  01:36      3.12    1.13    1.00
  YS02001791YS02001793 CONDUIT    974.17     0  03:01      5.97    0.42    1.00
  YS02001910YS02001907 CONDUIT    868.14     0  03:01      1.11    0.49    1.00
  YS02001786YS02001788 CONDUIT   1044.16     0  01:36      2.34    2.01    1.00
  YS02001915YS02001910 CONDUIT    868.08     0  03:01      1.11    0.43    1.00
  YS02001918YS02001915 CONDUIT    390.50     0  01:39      0.56    0.22    1.00
  YS02001923YS02001920 CONDUIT    387.35     0  01:39      0.89    0.17    1.00
  YS02001926YS02001923 CONDUIT    333.92     0  03:01      0.96    0.48    1.00
  YS02001929YS02001926 CONDUIT    330.76     0  03:01      1.03    0.16    1.00
  YS02001920YS02001918 CONDUIT    390.19     0  01:39      0.85    0.38    1.00
  YS02001629YS02163301 CONDUIT    295.30     0  01:30      0.38    0.36    1.00
  YS02001619YS02001622 CONDUIT    541.60     0  03:01      0.90    0.80    1.00
  YS02001622YS02001625 CONDUIT    541.66     0  03:01      0.69    0.29    1.00
  YS02001625YS02001629 CONDUIT    308.58     0  01:30      0.45    0.15    1.00
  YS02163301YS02001633 CONDUIT    296.64     0  01:30      0.38    0.28    1.00
  YS02163601YS02164001 CONDUIT    462.48     0  01:32      0.59    0.41    1.00
  YS02164001YS02001641 CONDUIT    463.01     0  01:32      0.59    0.63    1.00
  YS02001641YS02001644 CONDUIT    463.33     0  01:32      0.59    1.50    1.00
  YS02001647YS02001649 CONDUIT    846.70     0  03:17      1.08    0.45    1.00
  YS02006553YS02006556 CONDUIT    699.90     0  03:50      0.89    0.60    1.00
  YS02006556YS02006558 CONDUIT    700.08     0  03:50      0.89    0.55    1.00
  YSB6556YSB1171       CONDUIT     54.79     0  01:36      0.16    0.06    0.86
  YS02001907YS02006553 CONDUIT    699.81     0  03:50      0.78    0.82    1.00
  YS02006558YS02006561 CONDUIT   1079.61     0  01:37      3.82    2.39    1.00
  YS02001633YS02163601 CONDUIT    462.55     0  01:32      0.59    0.49    1.00
  YS02001644YS02001647 CONDUIT    846.70     0  03:17      1.08    0.50    1.00
  YS02001745YS02001748 CONDUIT    636.23     0  03:01      1.90    0.24    1.00
  YS02001748YS02001751 CONDUIT    636.30     0  03:01      1.44    0.32    1.00
  YS02001751YS02001754 CONDUIT    636.36     0  03:01      1.17    0.31    1.00
  YS02001754YS02001757 CONDUIT    636.66     0  03:01      0.81    0.26    1.00
  YS02001882YS02001884 CONDUIT     47.02     0  01:34      0.18    0.05    1.00
  YS02001884YS02001887 CONDUIT     60.92     0  01:32      0.14    0.08    1.00
  YS02001890YS02001895 CONDUIT    559.88     0  01:37      0.71    0.26    1.00
  YS02001895YS02001898 CONDUIT    560.33     0  01:37      0.71    0.97    1.00
  YS02001898YS02001901 CONDUIT    560.74     0  01:37      0.71    0.36    1.00
  YS02001901YS02001904 CONDUIT    561.03     0  01:37      0.71    0.87    1.00
  YS02001904YS02001907 CONDUIT    560.76     0  01:37      0.71    0.20    1.00
  YS02001887YS02001890 CONDUIT    787.88     0  03:01      1.00    1.35    1.00
  YS02001652YS02001649 CONDUIT    607.55     0  03:01      0.77    0.30    1.00
  YS02001655YS02001652 CONDUIT    607.55     0  03:01      1.26    0.30    1.00
  YS02001658YS02001655 CONDUIT    607.38     0  03:01      1.67    0.26    1.00
  YS02001661YS02001658 CONDUIT    607.37     0  03:01      2.02    0.24    1.00
  YS02001664YS02001661 CONDUIT    804.21     0  01:47      1.90    0.25    0.84
  YSB1154YSB6556       CONDUIT     54.36     0  01:35      0.17    0.10    0.79
  YSB1174YSB1171       CONDUIT     45.33     0  01:31      0.13    0.07    0.90
  YSB1171HS02004479    CONDUIT     98.35     0  01:34      0.54    0.07    0.73
  HS02004881HS02006253 CONDUIT    174.50     0  01:36      2.52    0.03    0.46
  YS02001793JiankangQianchi CONDUIT   1162.76     0  05:11     11.68    0.09    1.00
  YS02001757CaochengTiaoxuchi CONDUIT   2172.93     0  01:48      3.82    0.95    1.00
  WSF200WS02003060     CONDUIT    877.70     0  01:43      2.08    0.19    0.42
  1                    CONDUIT   1180.53     0  01:48      3.48    0.41    0.45
  2                    CONDUIT    442.59     0  01:40      6.74    1.06    0.94
  3                    CONDUIT    588.50     0  02:00     10.04    0.94    0.78
  4                    CONDUIT      0.00     0  00:00      0.00    0.00    0.00
  CC-Pump-1            PUMP       200.00     0  01:40              1.00
  CC-Pump-2            PUMP       200.00     0  01:40              1.00
  JK-Pump-1            PUMP       300.00     0  01:40              1.00
  JK-Pump-2            PUMP       300.00     0  02:20              1.00
  XR-Pump-1            PUMP        95.00     0  00:00              1.00
  XR-Pump-2            PUMP        95.00     0  00:00              1.00
  XR-Pump-3            PUMP        95.00     0  00:00              1.00
  XR-Pump-4            PUMP        95.00     0  00:30              1.00
  
  
  ***************************
  Flow Classification Summary
  ***************************
  
  -------------------------------------------------------------------------------------
                      Adjusted    ---------- Fraction of Time in Flow Class ---------- 
                       /Actual         Up    Down  Sub   Sup   Up    Down  Norm  Inlet 
  Conduit               Length    Dry  Dry   Dry   Crit  Crit  Crit  Crit  Ltd   Ctrl  
  -------------------------------------------------------------------------------------
  WS02003066WSF200        1.00   0.02  0.01  0.00  0.00  0.96  0.00  0.00  0.57  0.00
  WS02006287WS02006284    1.00   0.03  0.01  0.00  0.53  0.44  0.00  0.00  0.61  0.00
  WS02006284WS02006280    1.00   0.04  0.00  0.00  0.00  0.00  0.00  0.96  0.00  0.00
  WS02006280WS02006229    1.00   0.04  0.00  0.00  0.00  0.06  0.00  0.91  0.01  0.00
  WS02006229WS02006228    1.00   0.00  0.00  0.00  1.00  0.00  0.00  0.00  0.00  0.00
  WS02006256WS02006235    1.00   0.00  0.00  0.00  1.00  0.00  0.00  0.00  0.00  0.00
  WS02006253WS02006251    1.00   0.02  0.01  0.00  0.96  0.00  0.00  0.00  0.00  0.00
  WS02006252WS02006251    1.00   0.05  0.00  0.00  0.00  0.00  0.95  0.00  0.00  0.00
  WS02006251WS02006249    1.00   0.00  0.00  0.00  1.00  0.00  0.00  0.00  0.19  0.00
  WS02006249WS02006248    1.00   0.00  0.00  0.00  0.91  0.00  0.09  0.00  0.00  0.00
  WS02006248WS02006247    1.00   0.00  0.00  0.00  0.98  0.00  0.00  0.02  0.08  0.00
  WS02006247WS02006245    1.00   0.00  0.00  0.00  0.98  0.00  0.00  0.02  0.00  0.00
  WS02006245WS02006243    1.00   0.00  0.00  0.00  0.97  0.00  0.00  0.02  0.02  0.00
  WS02006243WS02006242    1.00   0.01  0.00  0.00  0.99  0.00  0.00  0.00  0.11  0.00
  WS02006242WS02006240    1.00   0.00  0.00  0.00  0.99  0.00  0.00  0.00  0.00  0.00
  WS02006240WS02006239    1.00   0.00  0.00  0.00  0.98  0.00  0.00  0.01  0.01  0.00
  WS02006239WS02006238    1.00   0.00  0.00  0.00  1.00  0.00  0.00  0.00  0.00  0.00
  WS02006238WS02006235    1.00   0.00  0.00  0.00  1.00  0.00  0.00  0.00  0.00  0.00
  WS02006235WS02006234    1.00   0.00  0.00  0.00  0.99  0.00  0.01  0.00  0.00  0.00
  WS02006234WS02006232    1.00   0.00  0.00  0.00  1.00  0.00  0.00  0.00  0.00  0.00
  WS02006232WS02006231    1.00   0.00  0.00  0.00  0.99  0.00  0.00  0.00  0.00  0.00
  WS02006231WS02006230    1.00   0.00  0.00  0.00  0.62  0.00  0.37  0.00  0.00  0.00
  WS02006230WS02006229    1.00   0.00  0.00  0.00  0.99  0.00  0.00  0.01  0.00  0.00
  WS02006228WS02006109    1.00   0.00  0.00  0.00  1.00  0.00  0.00  0.00  0.00  0.00
  WS02006116WS02004401    1.00   0.02  0.00  0.00  0.98  0.00  0.00  0.00  0.00  0.00
  WS02006115WS02006116    1.00   0.02  0.00  0.00  0.98  0.00  0.00  0.00  0.00  0.00
  WS02006113WS02006111    1.00   0.01  0.00  0.00  0.12  0.87  0.00  0.00  0.10  0.00
  WS02006112WS02006115    1.00   0.01  0.01  0.00  0.98  0.00  0.00  0.00  0.00  0.00
  WS02006111WS02006112    1.00   0.01  0.00  0.00  0.98  0.00  0.00  0.00  0.73  0.00
  WS02006110WS02006113    1.00   0.00  0.01  0.00  0.99  0.00  0.00  0.00  0.00  0.00
  WS02006109WS02006110    1.00   0.00  0.00  0.00  1.00  0.00  0.00  0.00  0.00  0.00
  WS02004411WS02004412    1.00   0.03  0.00  0.00  0.97  0.00  0.00  0.00  0.00  0.00
  WS02004401WS02004402    1.00   0.02  0.00  0.00  0.98  0.00  0.00  0.00  0.00  0.00
  WS02004413WS02003067    1.00   0.03  0.00  0.00  0.00  0.00  0.97  0.00  0.00  0.00
  WS02004412WS02004413    1.00   0.03  0.00  0.00  0.97  0.00  0.00  0.00  0.01  0.00
  WS02004410WS02004411    1.00   0.03  0.00  0.00  0.97  0.00  0.00  0.00  0.00  0.00
  WS02004409WS02004410    1.00   0.03  0.00  0.00  0.97  0.00  0.00  0.00  0.02  0.00
  WS02004407WS02004409    1.00   0.03  0.00  0.00  0.97  0.00  0.00  0.00  0.91  0.00
  WS02004406WS02004407    1.00   0.00  0.03  0.00  0.97  0.00  0.00  0.00  0.00  0.00
  WS02004405WS02004406    1.00   0.00  0.00  0.00  1.00  0.00  0.00  0.00  0.03  0.00
  WS02004404WS02004405    1.00   0.00  0.00  0.00  1.00  0.00  0.00  0.00  0.00  0.00
  WS02004403WS02004404    1.00   0.00  0.02  0.00  0.98  0.00  0.00  0.00  0.00  0.00
  WS02004402WS02004403    1.00   0.02  0.00  0.00  0.98  0.00  0.00  0.00  0.00  0.00
  WS02004139WS02001211    1.00   0.00  0.00  0.00  1.00  0.00  0.00  0.00  0.00  0.00
  WS02004138WS02004139    1.00   0.00  0.00  0.00  1.00  0.00  0.00  0.00  1.00  0.00
  WS02003067WS02003066    1.00   0.03  0.00  0.00  0.96  0.00  0.00  0.00  0.00  0.00
  WS02001213WS02003059    1.00   0.00  0.00  0.00  1.00  0.00  0.00  0.00  0.00  0.00
  WS02001212WS02001213    1.00   0.00  0.00  0.00  0.94  0.00  0.06  0.00  0.00  0.00
  WS02001211WS02001212    1.00   0.00  0.00  0.00  1.00  0.00  0.00  0.00  0.00  0.00
  WS02003072WS02003073    1.00   0.00  0.00  0.00  0.00  0.00  0.00  1.00  0.00  0.00
  WS02003069WS02003072    1.00   0.00  0.00  0.00  1.00  0.00  0.00  0.00  0.14  0.00
  WS02003060WS02003069    1.00   0.00  0.00  0.00  1.00  0.00  0.00  0.00  0.06  0.00
  WS02003059WS02003060    1.00   0.00  0.00  0.00  1.00  0.00  0.00  0.00  0.01  0.00
  HS02004901HS02004770    1.00   0.03  0.00  0.00  0.97  0.00  0.00  0.00  0.00  0.00
  HS02004876HS02004881    1.00   0.00  0.00  0.00  0.72  0.28  0.00  0.00  0.00  0.00
  HS02004870HS02004876    1.00   0.00  0.00  0.00  1.00  0.00  0.00  0.00  0.95  0.00
  HS02004842HS02004848    1.00   0.00  0.03  0.00  0.97  0.00  0.00  0.00  0.54  0.00
  HS02004837HS02004842    1.00   0.00  0.00  0.00  1.00  0.00  0.00  0.00  0.11  0.00
  HS02004830HS02004837    1.00   0.00  0.00  0.00  1.00  0.00  0.00  0.00  0.99  0.00
  HS02004824HS02004830    1.00   0.00  0.00  0.00  1.00  0.00  0.00  0.00  0.03  0.00
  HS02004817HS02004824    1.00   0.00  0.00  0.00  1.00  0.00  0.00  0.00  0.88  0.00
  HS02004770HS02004777    1.00   0.00  0.03  0.00  0.97  0.00  0.00  0.00  0.02  0.00
  HS02004799HS02004480    1.00   0.00  0.01  0.00  0.96  0.00  0.03  0.00  0.00  0.00
  HS02004792HS02004799    1.00   0.00  0.00  0.00  1.00  0.00  0.00  0.00  0.98  0.00
  HS02004788HS02004792    1.00   0.00  0.00  0.00  1.00  0.00  0.00  0.00  0.98  0.00
  HS02004785HS02004788    1.00   0.00  0.00  0.00  1.00  0.00  0.00  0.00  0.00  0.00
  HS02004777HS02004785    1.00   0.00  0.00  0.00  1.00  0.00  0.00  0.00  0.11  0.00
  HS02004480HS02004478    1.00   0.03  0.00  0.00  0.59  0.00  0.00  0.38  0.00  0.00
  HS02004479HS02004480    1.00   0.01  0.00  0.00  0.99  0.00  0.00  0.00  0.11  0.00
  HS02004862HS02004870    1.00   0.00  0.00  0.00  1.00  0.00  0.00  0.00  0.02  0.00
  HS02004848HS02004852    1.00   0.03  0.00  0.00  0.97  0.00  0.00  0.00  0.81  0.00
  HS02004856HS02004862    1.00   0.00  0.04  0.00  0.96  0.00  0.00  0.00  0.84  0.00
  HS02004852HS02004856    1.00   0.03  0.00  0.00  0.96  0.00  0.00  0.00  0.70  0.00
  HS02004802HS02004478    1.00   0.03  0.00  0.00  0.96  0.00  0.00  0.00  0.02  0.00
  HS02004478WS02006287    1.00   0.04  0.00  0.00  0.64  0.32  0.00  0.00  0.58  0.00
  HS02004817HS02004807    1.00   0.00  0.03  0.00  0.97  0.00  0.00  0.00  0.01  0.00
  HS02004807HS02004802    1.00   0.03  0.00  0.00  0.96  0.00  0.00  0.00  0.00  0.00
  YS02001759YS02001757    1.00   0.00  0.00  0.00  1.00  0.00  0.00  0.00  0.15  0.00
  YS02001762YS02001759    1.00   0.00  0.00  0.00  1.00  0.00  0.00  0.00  0.02  0.00
  YS02001765YS02001762    1.00   0.00  0.00  0.00  1.00  0.00  0.00  0.00  0.13  0.00
  YS02001770YS02001767    1.00   0.00  0.00  0.00  1.00  0.00  0.00  0.00  0.00  0.00
  YS02001774YS02001770    1.00   0.00  0.03  0.00  0.96  0.00  0.00  0.00  0.02  0.00
  YS02001779YS02001774    1.00   0.00  0.00  0.00  1.00  0.00  0.00  0.00  0.16  0.00
  YS02001649YS02001757    1.00   0.00  0.00  0.00  1.00  0.00  0.00  0.00  0.15  0.00
  YS02001767YS02001765    1.00   0.00  0.00  0.00  1.00  0.00  0.00  0.00  0.00  0.00
  YS02006561YS02001783    1.00   0.04  0.00  0.00  0.56  0.40  0.00  0.00  0.37  0.00
  YS02001783YS02001784    1.00   0.00  0.04  0.00  0.96  0.00  0.00  0.00  0.00  0.00
  YS02001784YS02001785    1.00   0.00  0.00  0.00  1.00  0.00  0.00  0.00  0.16  0.00
  YS02001788YS02001790    1.00   0.00  0.00  0.00  0.61  0.39  0.00  0.00  0.34  0.00
  YS02001790YS02001791    1.00   0.00  0.00  0.00  0.58  0.42  0.00  0.00  0.34  0.00
  YS02001791YS02001793    1.00   0.00  0.00  0.00  0.61  0.39  0.00  0.00  0.03  0.00
  YS02001910YS02001907    1.00   0.00  0.00  0.00  1.00  0.00  0.00  0.00  0.12  0.00
  YS02001786YS02001788    1.00   0.00  0.00  0.00  0.60  0.40  0.00  0.00  0.00  0.00
  YS02001915YS02001910    1.00   0.00  0.00  0.00  1.00  0.00  0.00  0.00  0.13  0.00
  YS02001918YS02001915    1.00   0.00  0.00  0.00  1.00  0.00  0.00  0.00  0.45  0.00
  YS02001923YS02001920    1.00   0.00  0.00  0.00  1.00  0.00  0.00  0.00  0.64  0.00
  YS02001926YS02001923    1.00   0.00  0.03  0.00  0.42  0.00  0.56  0.00  0.00  0.00
  YS02001929YS02001926    1.00   0.00  0.03  0.00  0.97  0.00  0.00  0.00  0.56  0.00
  YS02001920YS02001918    1.00   0.00  0.00  0.00  1.00  0.00  0.00  0.00  0.00  0.00
  YS02001629YS02163301    1.00   0.04  0.00  0.00  0.96  0.00  0.00  0.00  0.00  0.00
  YS02001619YS02001622    1.00   0.03  0.00  0.00  0.97  0.00  0.00  0.00  0.00  0.00
  YS02001622YS02001625    1.00   0.03  0.00  0.00  0.97  0.00  0.00  0.00  0.03  0.00
  YS02001625YS02001629    1.00   0.03  0.01  0.00  0.95  0.00  0.01  0.00  0.00  0.00
  YS02163301YS02001633    1.00   0.00  0.04  0.00  0.96  0.00  0.00  0.00  0.00  0.00
  YS02163601YS02164001    1.00   0.00  0.03  0.00  0.97  0.00  0.00  0.00  0.00  0.00
  YS02164001YS02001641    1.00   0.00  0.03  0.00  0.97  0.00  0.00  0.00  0.06  0.00
  YS02001641YS02001644    1.00   0.00  0.00  0.00  1.00  0.00  0.00  0.00  0.00  0.00
  YS02001647YS02001649    1.00   0.00  0.04  0.00  0.96  0.00  0.00  0.00  0.01  0.00
  YS02006553YS02006556    1.00   0.00  0.00  0.00  1.00  0.00  0.00  0.00  0.03  0.00
  YS02006556YS02006558    1.00   0.00  0.00  0.00  1.00  0.00  0.00  0.00  0.00  0.00
  YSB6556YSB1171          1.00   0.01  0.02  0.00  0.97  0.00  0.00  0.00  0.00  0.00
  YS02001907YS02006553    1.00   0.00  0.00  0.00  1.00  0.00  0.00  0.00  0.00  0.00
  YS02006558YS02006561    1.00   0.04  0.00  0.00  0.44  0.52  0.00  0.00  0.34  0.00
  YS02001633YS02163601    1.00   0.00  0.00  0.00  1.00  0.00  0.00  0.00  0.15  0.00
  YS02001644YS02001647    1.00   0.00  0.04  0.00  0.96  0.00  0.00  0.00  0.00  0.00
  YS02001745YS02001748    1.00   0.00  0.00  0.00  0.95  0.00  0.00  0.05  0.00  0.00
  YS02001748YS02001751    1.00   0.00  0.00  0.00  0.99  0.01  0.00  0.00  0.13  0.00
  YS02001751YS02001754    1.00   0.00  0.00  0.00  0.96  0.00  0.00  0.04  0.01  0.00
  YS02001754YS02001757    1.00   0.00  0.00  0.00  1.00  0.00  0.00  0.00  0.16  0.00
  YS02001882YS02001884    1.00   0.04  0.00  0.00  0.96  0.00  0.00  0.00  0.00  0.00
  YS02001884YS02001887    1.00   0.02  0.01  0.00  0.97  0.00  0.00  0.00  0.00  0.00
  YS02001890YS02001895    1.00   0.00  0.04  0.00  0.96  0.00  0.00  0.00  0.00  0.00
  YS02001895YS02001898    1.00   0.04  0.00  0.00  0.96  0.00  0.00  0.00  0.00  0.00
  YS02001898YS02001901    1.00   0.04  0.00  0.00  0.96  0.00  0.00  0.00  0.00  0.00
  YS02001901YS02001904    1.00   0.04  0.00  0.00  0.96  0.00  0.00  0.00  0.00  0.00
  YS02001904YS02001907    1.00   0.00  0.04  0.00  0.96  0.00  0.00  0.00  0.00  0.00
  YS02001887YS02001890    1.00   0.00  0.00  0.00  1.00  0.00  0.00  0.00  0.00  0.00
  YS02001652YS02001649    1.00   0.00  0.00  0.00  1.00  0.00  0.00  0.00  0.15  0.00
  YS02001655YS02001652    1.00   0.00  0.00  0.00  0.96  0.00  0.00  0.04  0.01  0.00
  YS02001658YS02001655    1.00   0.00  0.04  0.00  0.95  0.01  0.00  0.00  0.01  0.00
  YS02001661YS02001658    1.00   0.04  0.00  0.00  0.95  0.02  0.00  0.00  0.00  0.00
  YS02001664YS02001661    1.00   0.03  0.00  0.00  0.95  0.01  0.00  0.00  0.07  0.00
  YSB1154YSB6556          1.00   0.03  0.00  0.00  0.97  0.00  0.00  0.00  0.01  0.00
  YSB1174YSB1171          1.00   0.02  0.01  0.00  0.97  0.00  0.00  0.00  0.00  0.00
  YSB1171HS02004479       1.00   0.01  0.00  0.00  0.98  0.00  0.00  0.01  0.10  0.00
  HS02004881HS02006253    1.00   0.02  0.00  0.00  0.76  0.02  0.00  0.21  0.63  0.00
  YS02001793JiankangQianchi    1.00   0.00  0.00  0.00  0.81  0.19  0.00  0.00  0.23  0.00
  YS02001757CaochengTiaoxuchi    1.00   0.00  0.05  0.00  0.91  0.05  0.00  0.00  0.00  0.00
  WSF200WS02003060        1.00   0.00  0.02  0.00  0.63  0.34  0.00  0.00  0.32  0.00
  1                       1.00   0.00  0.00  0.00  0.00  1.00  0.00  0.00  0.38  0.00
  2                       1.00   0.46  0.00  0.00  0.00  0.54  0.00  0.00  0.12  0.00
  3                       1.00   0.06  0.00  0.00  0.00  0.93  0.00  0.00  0.03  0.00
  4                       1.00   1.00  0.00  0.00  0.00  0.00  0.00  0.00  0.00  0.00
  
  
  *************************
  Conduit Surcharge Summary
  *************************
  
  ----------------------------------------------------------------------------
                                                           Hours        Hours 
                         --------- Hours Full --------   Above Full   Capacity
  Conduit                Both Ends  Upstream  Dnstream   Normal Flow   Limited
  ----------------------------------------------------------------------------
  WS02006229WS02006228        3.28      3.40      3.28      4.66         3.28
  WS02006256WS02006235        6.60      6.60      7.62      3.16         0.01
  WS02006253WS02006251        0.35      0.35      0.49      0.01         0.01
  WS02006252WS02006251        1.24      1.24      2.26      2.00         0.01
  WS02006251WS02006249        0.26      0.38      0.26      1.63         0.26
  WS02006249WS02006248        0.22      0.22      0.26      3.79         0.01
  WS02006248WS02006247        0.28      0.28      0.73      0.01         0.01
  WS02006247WS02006245        0.75      0.82      0.75      4.91         0.69
  WS02006245WS02006243        0.83      0.84      1.52      0.01         0.01
  WS02006243WS02006242        1.82      1.82      2.76      0.01         0.01
  WS02006242WS02006240        2.07      2.07      3.10      1.73         0.01
  WS02006240WS02006239        2.19      2.19      2.36      0.02         0.01
  WS02006239WS02006238        3.01      3.02      3.15      0.03         0.01
  WS02006238WS02006235        3.01      3.01      3.36      0.01         0.02
  WS02006235WS02006234        2.09      2.09      2.86      6.25         0.13
  WS02006234WS02006232        2.28      2.28      3.43      0.01         0.01
  WS02006232WS02006231        1.84      1.84      3.43      0.01         0.01
  WS02006231WS02006230        1.74      1.74      1.87      6.41         0.10
  WS02006230WS02006229        3.78      4.26      3.79      6.61         3.65
  WS02006228WS02006109        3.34      3.61      3.34      5.83         3.34
  WS02006116WS02004401        1.21      1.21      1.31      0.86         0.86
  WS02006115WS02006116        0.71      0.71      0.72      0.56         0.56
  WS02006113WS02006111        0.01      0.01      0.01      0.16         0.01
  WS02006112WS02006115        0.66      0.66      2.09      0.01         0.01
  WS02006111WS02006112        0.01      0.01      4.88      0.01         0.01
  WS02006110WS02006113        0.01      0.01      3.54      0.01         0.01
  WS02006109WS02006110        1.96      1.96      3.61      1.96         0.01
  WS02004411WS02004412        0.01      0.01      0.01      1.00         0.01
  WS02004401WS02004402        1.31      1.31      1.63      0.28         0.29
  WS02004410WS02004411        0.01      0.01      0.01      0.83         0.01
  WS02004409WS02004410        0.01      0.01      0.01      0.59         0.01
  WS02004406WS02004407        0.01      0.01      1.71      0.01         0.01
  WS02004405WS02004406        1.71      1.73      1.71      2.02         1.71
  WS02004404WS02004405        1.73      1.76      1.73      6.43         1.73
  WS02004403WS02004404        1.64      1.64      1.76      0.01         0.01
  WS02004402WS02004403        1.63      1.63      1.64      1.10         1.11
  WS02003072WS02003073        0.01      0.01      0.01      6.25         0.01
  HS02004876HS02004881        0.01      0.01      0.01      0.86         0.01
  HS02004817HS02004824        0.01      0.01      0.32      0.01         0.01
  HS02004785HS02004788        0.01      0.01      0.01      0.81         0.01
  HS02004480HS02004478        0.01      0.01      0.01      1.81         0.01
  HS02004817HS02004807        0.01      0.01      0.32      0.01         0.01
  YS02001759YS02001757        6.35      6.35      6.36      0.01         0.01
  YS02001762YS02001759        6.34      6.34      6.35      0.01         0.01
  YS02001765YS02001762        6.34      6.34      6.34      0.01         0.01
  YS02001770YS02001767        6.33      6.33      6.33      1.20         0.65
  YS02001774YS02001770        6.33      6.33      6.34      0.01         0.01
  YS02001779YS02001774        6.31      6.31      6.34      0.01         0.01
  YS02001649YS02001757        6.34      6.34      6.36      0.01         0.01
  YS02001767YS02001765        6.33      6.33      6.34      0.01         0.01
  YS02006561YS02001783        2.43      2.43      2.93      0.01         0.01
  YS02001783YS02001784        2.93      2.93      3.00      2.80         2.71
  YS02001784YS02001785        2.89      3.00      2.89      3.51         2.89
  YS02001788YS02001790        2.87      2.87      3.43      0.01         0.01
  YS02001790YS02001791        3.43      3.43      3.51      2.32         2.30
  YS02001791YS02001793        3.51      3.51      3.75      0.01         0.01
  YS02001910YS02001907        2.74      2.74      3.03      0.01         0.01
  YS02001786YS02001788        2.87      2.89      2.87      3.18         2.86
  YS02001915YS02001910        2.55      2.55      2.74      0.01         0.01
  YS02001918YS02001915        2.33      2.33      2.55      0.01         0.01
  YS02001923YS02001920        2.16      2.16      2.37      0.01         0.01
  YS02001926YS02001923        0.01      0.01      0.01      0.01         0.01
  YS02001929YS02001926        0.01      0.01      0.01      0.01         0.01
  YS02001920YS02001918        2.33      2.33      2.37      0.01         0.01
  YS02001629YS02163301        6.33      6.33      6.33      0.01         0.01
  YS02001619YS02001622        6.31      6.31      6.31      0.01         0.01
  YS02001622YS02001625        6.31      6.31      6.32      0.01         0.01
  YS02001625YS02001629        6.31      6.31      6.32      0.01         0.01
  YS02163301YS02001633        6.33      6.33      6.33      0.01         0.01
  YS02163601YS02164001        6.33      6.33      6.34      0.01         0.01
  YS02164001YS02001641        6.33      6.33      6.34      0.01         0.02
  YS02001641YS02001644        6.34      6.34      6.34      3.05         2.98
  YS02001647YS02001649        6.32      6.32      6.34      0.01         0.01
  YS02006553YS02006556        2.90      2.90      3.08      0.01         0.01
  YS02006556YS02006558        2.96      2.96      3.13      0.01         0.01
  YSB6556YSB1171              0.01      0.01      0.43      0.01         0.01
  YS02001907YS02006553        3.53      3.53      3.72      0.01         0.01
  YS02006558YS02006561        2.60      2.87      2.60      3.40         2.60
  YS02001633YS02163601        6.33      6.33      6.34      0.01         0.01
  YS02001644YS02001647        6.32      6.32      6.34      0.01         0.01
  YS02001745YS02001748        0.53      0.53      6.28      0.01         0.01
  YS02001748YS02001751        6.29      6.29      6.30      0.01         0.01
  YS02001751YS02001754        6.30      6.30      6.31      0.01         0.01
  YS02001754YS02001757        6.31      6.31      6.36      0.01         0.01
  YS02001882YS02001884        2.56      2.56      2.59      0.01         0.01
  YS02001884YS02001887        2.64      2.64      2.67      0.01         0.01
  YS02001890YS02001895        2.54      2.54      2.75      0.01         0.01
  YS02001895YS02001898        2.52      2.52      2.54      0.01         0.01
  YS02001898YS02001901        2.55      2.55      2.64      0.01         0.01
  YS02001901YS02001904        2.62      2.62      2.64      0.01         0.01
  YS02001904YS02001907        2.62      2.62      3.10      0.01         0.01
  YS02001887YS02001890        2.70      2.70      2.72      1.55         0.01
  YS02001652YS02001649        6.32      6.32      6.34      0.01         0.01
  YS02001655YS02001652        6.30      6.30      6.31      0.01         0.01
  YS02001658YS02001655        6.29      6.29      6.30      0.01         0.01
  YS02001661YS02001658        1.16      1.16      6.29      0.01         0.01
  YS02001664YS02001661        0.01      0.01      2.67      0.01         0.01
  YSB1174YSB1171              0.01      0.01      0.16      0.01         0.01
  YS02001793JiankangQianchi        3.68      3.68      5.12      0.01         0.01
  YS02001757CaochengTiaoxuchi        5.84      5.84      6.36      0.01         0.01
  2                           0.01      0.01      0.09      0.09         0.01
  
  
  ***************
  Pumping Summary
  ***************
  
  ---------------------------------------------------------------------------------------------------------
                                                  Min       Avg       Max     Total     Power    % Time Off
                        Percent   Number of      Flow      Flow      Flow    Volume     Usage    Pump Curve
  Pump                 Utilized   Start-Ups       LPS       LPS       LPS  10^6 ltr     Kw-hr    Low   High
  ---------------------------------------------------------------------------------------------------------
  CC-Pump-1               64.82           5      0.00    141.09    200.00     2.529      2.76    0.0    4.8
  CC-Pump-2               55.32           3      0.00    154.69    200.00     2.400      2.92    0.0    3.8
  JK-Pump-1               87.22           7      0.00    200.17    300.00     4.344     36.15    0.0    0.0
  JK-Pump-2               80.84           5      0.00    195.22    300.00     3.913     35.50    0.0    0.0
  XR-Pump-1               74.45          11      0.00     61.79     95.00     1.425     12.59    0.0    0.0
  XR-Pump-2               89.35           8      0.00     75.45     95.00     1.881     12.76    0.0    0.0
  XR-Pump-3               95.73           7      0.00     71.90     95.00     1.995     15.18    0.0    0.0
  XR-Pump-4               91.48           5      0.00     81.01     95.00     2.080     14.90    0.0    0.0
  

  Analysis begun on:  Tue Dec 21 09:37:42 2021
  Analysis ended on:  Tue Dec 21 09:37:46 2021
  Total elapsed time: 00:00:04