
  EPA STORM WATER MANAGEMENT MODEL - VERSION 5.1 (Build 5.3.0.dev0)
  --------------------------------------------------------------

  WARNING 04: minimum elevation drop used for Conduit WS02004404WS02004405
  WARNING 03: negative offset ignored for Link YS02001904YS02001907
  
  *********************************************************
  NOTE: The summary statistics displayed in this report are
  based on results found at every computational time step,  
  not just on results from each reporting time step.
  *********************************************************
  
  ****************
  Analysis Options
  ****************
  Flow Units ............... LPS
  Process Models:
    Rainfall/Runoff ........ YES
    RDII ................... NO
    Snowmelt ............... NO
    Groundwater ............ NO
    Flow Routing ........... YES
    Ponding Allowed ........ NO
    Water Quality .......... NO
  Infiltration Method ...... HORTON
  Flow Routing Method ...... DYNWAVE
  Surcharge Method ......... EXTRAN
  Starting Date ............ 08/28/2015 08:00:00
  Ending Date .............. 08/28/2015 15:50:00
  Antecedent Dry Days ...... 8.0
  Report Time Step ......... 00:01:00
  Wet Time Step ............ 00:01:00
  Dry Time Step ............ 00:01:00
  Routing Time Step ........ 5.00 sec
  Variable Time Step ....... YES
  Maximum Trials ........... 8
  Number of Threads ........ 4
  Head Tolerance ........... 0.001500 m
  
  
  **************************        Volume         Depth
  Runoff Quantity Continuity     hectare-m            mm
  **************************     ---------       -------
  Total Precipitation ......         7.641        16.729
  Evaporation Loss .........         0.000         0.000
  Infiltration Loss ........         1.880         4.117
  Surface Runoff ...........         4.668        10.221
  Final Storage ............         1.093         2.393
  Continuity Error (%) .....        -0.013
  
  
  **************************        Volume        Volume
  Flow Routing Continuity        hectare-m      10^6 ltr
  **************************     ---------     ---------
  Dry Weather Inflow .......         0.616         6.165
  Wet Weather Inflow .......         4.667        46.671
  Groundwater Inflow .......         0.000         0.000
  RDII Inflow ..............         0.000         0.000
  External Inflow ..........         0.102         1.024
  External Outflow .........         2.204        22.036
  Flooding Loss ............         2.662        26.620
  Evaporation Loss .........         0.000         0.000
  Exfiltration Loss ........         0.000         0.000
  Initial Stored Volume ....         0.076         0.761
  Final Stored Volume ......         0.648         6.482
  Continuity Error (%) .....        -0.949
  
  
  *************************
  Highest Continuity Errors
  *************************
  Node HS02004842 (12.71%)
  Node YS02001884 (8.60%)
  Node JK-storage (-4.39%)
  Node HS02004817 (2.32%)
  Node YSB1171 (2.18%)
  
  
  ***************************
  Time-Step Critical Elements
  ***************************
  Link 3 (48.60%)
  Link WS02006252WS02006251 (42.73%)
  Link WS02006238WS02006235 (3.28%)
  
  
  ********************************
  Highest Flow Instability Indexes
  ********************************
  Link YS02163601YS02164001 (45)
  Link YS02163301YS02001633 (45)
  Link YS02001629YS02163301 (44)
  Link YS02001619YS02001622 (41)
  Link YS02164001YS02001641 (40)
  
  
  *************************
  Routing Time Step Summary
  *************************
  Minimum Time Step           :     0.18 sec
  Average Time Step           :     0.75 sec
  Maximum Time Step           :     5.00 sec
  Percent in Steady State     :    -0.00
  Average Iterations per Step :     4.68
  Percent Not Converging      :    20.38
  
  
  ***************************
  Subcatchment Runoff Summary
  ***************************
  
  ------------------------------------------------------------------------------------------------------------------------------
                            Total      Total      Total      Total     Imperv       Perv      Total       Total     Peak  Runoff
                           Precip      Runon       Evap      Infil     Runoff     Runoff     Runoff      Runoff   Runoff   Coeff
  Subcatchment                 mm         mm         mm         mm         mm         mm         mm    10^6 ltr      LPS
  ------------------------------------------------------------------------------------------------------------------------------
  sub0                      16.73       0.00       0.00       0.97      14.29       0.20      14.50        0.01     3.66   0.867
  sub1                      16.73       0.00       0.00       1.58      13.63       0.26      13.89        0.09    24.51   0.830
  sub2                      16.73       0.00       0.00       5.80       9.63       0.39      10.02        0.09    22.91   0.599
  sub3                      16.73       0.00       0.00       5.88       9.59       0.31       9.90        0.22    50.49   0.592
  sub4                      16.73       0.00       0.00       1.65      13.47       0.19      13.66        0.28    60.01   0.817
  sub5                      16.73       0.00       0.00       0.99      14.24       0.18      14.42        0.16    43.61   0.862
  sub7                      16.73       0.00       0.00       1.26      13.97       0.24      14.21        0.05    13.82   0.849
  sub8                      16.73       0.00       0.00       1.27      13.96       0.23      14.19        0.09    25.44   0.848
  sub9                      16.73       0.00       0.00       1.27      13.96       0.23      14.19        0.07    19.02   0.848
  sub10                     16.73       0.00       0.00       1.13      14.10       0.21      14.30        0.16    42.73   0.855
  sub11                     16.73       0.00       0.00       1.12      14.11       0.21      14.33        0.17    47.25   0.857
  sub12                     16.73       0.00       0.00       1.83      13.37       0.35      13.71        0.12    35.87   0.820
  sub14                     16.73       0.00       0.00       1.27      13.95       0.23      14.19        0.14    37.43   0.848
  sub15                     16.73       0.00       0.00       4.53      10.73       0.49      11.22        0.19    51.47   0.671
  sub16                     16.73       0.00       0.00       4.88      10.29       0.64      10.93        0.11    32.57   0.653
  sub17                     16.73       0.00       0.00       4.74      10.44       0.61      11.05        0.09    26.81   0.661
  sub22                     16.73       0.00       0.00       6.60       8.75       0.59       9.34        0.59   160.16   0.558
  sub23                     16.73       0.00       0.00       5.59       9.67       0.60      10.27        0.49   134.74   0.614
  sub60                     16.73       0.00       0.00       1.94      11.65       0.06      11.71        3.55   386.89   0.700
  sub61                     16.73       0.00       0.00       2.75      11.65       0.09      11.73        3.62   476.87   0.701
  sub62                     16.73       0.00       0.00       1.26      12.72       0.07      12.79        3.93   491.27   0.765
  sub63                     16.73       0.00       0.00       4.75      10.14       0.10      10.23        3.10   437.54   0.612
  sub64                     16.73       0.00       0.00       2.45      11.19       0.06      11.26        3.42   367.58   0.673
  sub65                     16.73       0.00       0.00       2.11      11.40       0.06      11.46        3.52   372.98   0.685
  sub66                     16.73       0.00       0.00       4.79       9.55       0.06       9.61        2.95   336.52   0.575
  sub67                     16.73       0.00       0.00       1.24      13.25       0.09      13.35        4.12   605.48   0.798
  sub68                     16.73       0.00       0.00       2.25      12.20       0.10      12.30        3.78   521.64   0.735
  sub69                     16.73       0.00       0.00       2.37      12.50       0.14      12.64        2.95   482.20   0.755
  sub70                     16.73      12.90       0.00       8.98      17.16       1.09      18.25        4.18   460.88   0.616
  sub71                     16.73       0.00       0.00       1.27      12.46       0.07      12.53        2.96   345.19   0.749
  sub72                     16.73       0.00       0.00       1.14      10.39       0.03      10.43        2.12   185.81   0.623
  sub73                     16.73      17.77       0.00       9.78      19.72       1.38      21.10        4.96   482.28   0.612
  sub74                     16.73       0.00       0.00      12.48       3.71       0.07       3.78        1.51   261.10   0.226
  
  
  ******************
  Node Depth Summary
  ******************
  
  ---------------------------------------------------------------------------------
                                 Average  Maximum  Maximum  Time of Max    Reported
                                   Depth    Depth      HGL   Occurrence   Max Depth
  Node                 Type       Meters   Meters   Meters  days hr:min      Meters
  ---------------------------------------------------------------------------------
  WS02001211           JUNCTION     0.66     0.79     5.63     0  03:10        0.79
  WS02001212           JUNCTION     0.39     0.50     5.57     0  03:11        0.50
  WS02001213           JUNCTION     0.64     0.77     5.54     0  02:01        0.77
  WS02003069           JUNCTION     0.47     0.65     5.23     0  02:01        0.65
  WS02003072           JUNCTION     0.53     0.70     5.07     0  02:02        0.70
  WS02003073           JUNCTION     0.32     0.43     4.50     0  02:02        0.43
  WS02003060           JUNCTION     0.42     0.57     5.50     0  02:01        0.57
  WS02003066           JUNCTION     0.25     0.36     5.91     0  01:58        0.36
  WS02003059           JUNCTION     0.70     0.84     5.52     0  02:01        0.84
  WS02003067           JUNCTION     0.61     0.79     6.11     0  01:57        0.79
  WS02004401           JUNCTION     0.74     1.12     7.12     0  01:54        1.12
  WS02004402           JUNCTION     0.77     1.12     7.08     0  01:54        1.12
  WS02004403           JUNCTION     0.78     1.11     7.04     0  01:54        1.11
  WS02004404           JUNCTION     0.86     1.16     7.01     0  01:55        1.16
  WS02004406           JUNCTION     0.86     1.11     6.94     0  01:54        1.11
  WS02004409           JUNCTION     0.55     0.86     6.63     0  01:56        0.86
  WS02004410           JUNCTION     0.57     0.86     6.58     0  01:57        0.86
  WS02004411           JUNCTION     0.58     0.85     6.53     0  01:57        0.85
  WS02004412           JUNCTION     0.59     0.84     6.48     0  01:57        0.84
  WS02004413           JUNCTION     0.75     0.98     6.45     0  01:57        0.98
  WS02004405           JUNCTION     0.85     1.14     6.99     0  01:55        1.14
  WS02006109           JUNCTION     0.83     1.27     7.89     0  01:55        1.26
  WS02006110           JUNCTION     0.81     1.12     7.70     0  01:54        1.12
  WS02006111           JUNCTION     0.26     0.62     7.33     0  01:55        0.62
  WS02006112           JUNCTION     0.92     1.40     7.28     0  01:54        1.39
  WS02006113           JUNCTION     0.38     0.62     7.51     0  01:54        0.62
  WS02006115           JUNCTION     0.64     1.07     7.21     0  01:54        1.07
  WS02006116           JUNCTION     0.72     1.13     7.17     0  01:54        1.13
  WS02006230           JUNCTION     0.83     1.40     8.14     0  01:55        1.39
  WS02006231           JUNCTION     0.57     1.03     8.15     0  01:55        1.03
  WS02006232           JUNCTION     0.70     1.17     8.21     0  01:47        1.11
  WS02006234           JUNCTION     0.62     1.12     8.28     0  01:47        1.00
  WS02006235           JUNCTION     0.65     1.11     8.27     0  01:47        1.00
  WS02006238           JUNCTION     0.68     1.13     8.28     0  01:47        1.02
  WS02006240           JUNCTION     0.58     1.34     8.64     0  01:47        0.91
  WS02006242           JUNCTION     0.63     1.55     8.82     0  01:46        0.94
  WS02006243           JUNCTION     0.51     1.20     8.62     0  01:47        0.81
  WS02006245           JUNCTION     0.49     0.84     8.32     0  01:47        0.76
  WS02006247           JUNCTION     0.50     1.07     8.57     0  01:47        0.76
  WS02006248           JUNCTION     0.44     0.70     8.29     0  01:47        0.69
  WS02006249           JUNCTION     0.47     0.69     8.29     0  01:50        0.69
  WS02006239           JUNCTION     0.63     1.21     8.42     0  01:46        0.97
  WS02006251           JUNCTION     0.46     0.78     8.45     0  01:50        0.77
  WS02006252           JUNCTION     0.39     0.59     8.84     0  04:26        0.59
  WS02006253           JUNCTION     0.49     0.82     8.46     0  01:50        0.81
  WS02006256           JUNCTION     1.07     1.21     8.15     0  02:50        1.21
  WS02004138           JUNCTION     0.15     0.19     7.44     0  05:02        0.19
  WS02004407           JUNCTION     0.25     0.37     6.68     0  01:55        0.37
  WS02006228           JUNCTION     0.85     1.40     8.05     0  01:54        1.38
  WS02006229           JUNCTION     0.83     1.43     8.12     0  01:54        1.43
  WS02006280           JUNCTION     0.08     0.25     8.52     0  01:55        0.25
  WS02006284           JUNCTION     0.39     0.64     9.04     0  01:55        0.64
  WS02006287           JUNCTION     0.12     0.38     9.33     0  01:54        0.38
  WSF200               JUNCTION     0.25     0.40     5.63     0  01:59        0.40
  HS02004901           JUNCTION     0.14     0.36    10.18     0  01:52        0.36
  HS02004881           JUNCTION     0.01     0.05     9.08     0  01:55        0.05
  HS02004876           JUNCTION     0.05     0.16     9.19     0  01:55        0.16
  HS02004870           JUNCTION     0.02     0.09     9.38     0  01:55        0.09
  HS02004862           JUNCTION     0.03     0.11     9.49     0  01:55        0.11
  HS02004856           JUNCTION     0.09     0.15     9.58     0  01:55        0.15
  HS02004852           JUNCTION     0.02     0.07     9.59     0  01:55        0.07
  HS02004848           JUNCTION     0.02     0.07     9.67     0  01:55        0.07
  HS02004842           JUNCTION     0.34     0.40     9.67     0  01:55        0.40
  HS02004837           JUNCTION     0.03     0.09     9.67     0  01:55        0.09
  HS02004830           JUNCTION     0.05     0.10     9.57     0  01:56        0.10
  HS02004824           JUNCTION     0.03     0.12     9.53     0  01:55        0.12
  HS02004817           JUNCTION     0.46     0.69     9.53     0  01:55        0.69
  HS02004807           JUNCTION     0.15     0.36     9.53     0  01:55        0.36
  HS02004802           JUNCTION     0.18     0.39     9.52     0  01:55        0.39
  HS02004799           JUNCTION     0.15     0.45     9.66     0  01:53        0.45
  HS02004792           JUNCTION     0.05     0.20     9.73     0  01:52        0.20
  HS02004788           JUNCTION     0.04     0.15    10.05     0  01:53        0.15
  HS02004785           JUNCTION     0.06     0.23    10.14     0  01:52        0.23
  HS02004777           JUNCTION     0.17     0.37    10.17     0  01:52        0.37
  HS02004770           JUNCTION     0.14     0.35    10.18     0  01:52        0.35
  HS02004480           JUNCTION     0.10     0.37     9.61     0  01:53        0.37
  HS02004479           JUNCTION     0.14     0.41     9.61     0  01:53        0.41
  HS02004478           JUNCTION     0.08     0.27     9.50     0  01:54        0.27
  YS02001745           JUNCTION     0.78     0.92     8.44     0  02:47        0.92
  YS02001748           JUNCTION     1.18     1.36     8.44     0  02:46        1.36
  YS02001751           JUNCTION     1.37     1.65     8.53     0  01:48        1.56
  YS02001754           JUNCTION     1.62     1.84     8.45     0  02:57        1.83
  YS02001762           JUNCTION     1.83     2.04     8.44     0  02:57        2.03
  YS02001765           JUNCTION     1.78     1.99     8.44     0  02:37        1.98
  YS02001767           JUNCTION     1.74     1.95     8.44     0  02:42        1.93
  YS02001770           JUNCTION     1.74     1.93     8.42     0  02:46        1.92
  YS02001774           JUNCTION     1.81     1.98     8.41     0  02:55        1.98
  YS02001779           JUNCTION     1.55     1.68     8.37     0  01:47        1.68
  YS02001882           JUNCTION     0.71     1.67     8.39     0  01:55        1.62
  YS02001884           JUNCTION     0.80     1.76     8.38     0  01:55        1.72
  YS02001759           JUNCTION     1.86     2.08     8.44     0  02:22        2.07
  YS02001887           JUNCTION     0.88     1.82     8.36     0  01:55        1.81
  YS02001890           JUNCTION     0.91     1.81     8.32     0  01:55        1.81
  YS02001898           JUNCTION     0.68     1.58     8.32     0  01:55        1.56
  YS02001901           JUNCTION     0.79     1.70     8.31     0  01:55        1.67
  YS02001904           JUNCTION     0.77     1.67     8.30     0  01:55        1.63
  YS02001907           JUNCTION     1.10     1.96     8.25     0  01:55        1.96
  YS02001910           JUNCTION     0.89     1.96     8.47     0  01:57        1.79
  YS02001915           JUNCTION     0.69     1.90     8.62     0  01:57        1.62
  YS02001918           JUNCTION     0.43     1.81     8.88     0  01:57        1.36
  YS02001619           JUNCTION     1.33     1.61     8.54     0  01:47        1.61
  YS02001629           JUNCTION     1.69     1.85     8.40     0  01:47        1.85
  YS02001641           JUNCTION     1.79     1.93     8.37     0  02:31        1.93
  YS02001644           JUNCTION     1.79     1.92     8.35     0  01:51        1.92
  YS02001652           JUNCTION     1.64     2.16     8.76     0  02:15        1.93
  YS02001655           JUNCTION     1.40     2.20     9.05     0  01:48        1.74
  YS02001920           JUNCTION     0.53     1.93     8.93     0  01:57        1.49
  YS02001923           JUNCTION     0.35     1.88     9.14     0  01:57        1.31
  YS02001926           JUNCTION     0.37     1.90     9.35     0  01:57        1.14
  YS02001929           JUNCTION     0.23     0.96     8.65     0  01:58        0.90
  YS02001658           JUNCTION     1.13     2.25     9.39     0  02:11        1.70
  YS02001661           JUNCTION     0.89     2.38     9.78     0  02:11        2.33
  YS02001664           JUNCTION     0.40     0.57     8.49     0  03:37        0.57
  YS02001622           JUNCTION     1.35     1.62     8.52     0  01:47        1.62
  YS02001633           JUNCTION     1.78     1.95     8.40     0  02:38        1.94
  YS02001649           JUNCTION     1.83     2.05     8.44     0  01:55        2.05
  YS02001757           JUNCTION     1.96     2.18     8.44     0  02:44        2.17
  YS02001895           JUNCTION     0.67     1.57     8.32     0  01:55        1.56
  YS02001625           JUNCTION     1.64     1.78     8.38     0  01:46        1.78
  YS02163301           JUNCTION     1.72     1.90     8.42     0  01:49        1.88
  YS02163601           JUNCTION     1.83     1.99     8.39     0  02:13        1.99
  YS02164001           JUNCTION     1.77     1.92     8.38     0  01:54        1.91
  YS02001647           JUNCTION     1.62     1.80     8.41     0  03:39        1.79
  YSB1154              JUNCTION     0.28     0.56     9.62     0  01:53        0.56
  YSB6556              JUNCTION     0.17     0.44     9.61     0  01:53        0.44
  YSB1174              JUNCTION     0.23     0.50     9.61     0  01:53        0.50
  YSB1171              JUNCTION     0.43     0.71     9.61     0  01:53        0.71
  YS02006553           JUNCTION     1.10     2.18     8.46     0  01:55        1.96
  YS02006561           JUNCTION     0.43     1.95     8.61     0  01:55        1.08
  YS02006556           JUNCTION     1.07     2.39     8.70     0  01:55        1.93
  YS02006558           JUNCTION     1.11     2.50     8.77     0  01:55        1.97
  YS02001783           JUNCTION     0.69     2.35     8.49     0  01:55        1.47
  YS02001784           JUNCTION     0.69     2.29     8.36     0  01:55        1.41
  YS02001786           JUNCTION     0.62     2.23     8.26     0  01:55        1.26
  YS02001788           JUNCTION     0.55     2.28     8.26     0  01:55        1.13
  YS02001790           JUNCTION     0.68     1.96     7.60     0  01:54        1.29
  YS02001791           JUNCTION     0.66     2.72     8.19     0  01:54        1.27
  YS02001793           JUNCTION     0.94     2.99     7.82     0  01:53        1.80
  WS02004139           JUNCTION     0.60     0.73     5.64     0  03:10        0.73
  WSC                  OUTFALL      0.32     0.43     1.10     0  02:03        0.43
  3                    OUTFALL      0.11     0.21     6.21     0  02:50        0.21
  4                    OUTFALL      0.04     0.19     7.19     0  01:50        0.19
  5                    OUTFALL      0.00     0.00     5.00     0  00:00        0.00
  JK-storage           STORAGE      3.60     5.80     6.60     0  01:55        5.80
  CC-storage           STORAGE      1.17     1.40     8.40     0  03:06        1.40
  XR-storage           STORAGE      7.53     7.72     5.72     0  01:53        7.72
  
  
  *******************
  Node Inflow Summary
  *******************
  
  -------------------------------------------------------------------------------------------------
                                  Maximum  Maximum                  Lateral       Total        Flow
                                  Lateral    Total  Time of Max      Inflow      Inflow     Balance
                                   Inflow   Inflow   Occurrence      Volume      Volume       Error
  Node                 Type           LPS      LPS  days hr:min    10^6 ltr    10^6 ltr     Percent
  -------------------------------------------------------------------------------------------------
  WS02001211           JUNCTION      7.35   388.35     0  05:10       0.207        6.53       0.455
  WS02001212           JUNCTION      0.00   389.20     0  05:10           0         6.5       0.266
  WS02001213           JUNCTION      0.00   390.18     0  05:10           0        6.49       0.330
  WS02003069           JUNCTION      0.32  1115.87     0  02:01     0.00902        16.3       0.174
  WS02003072           JUNCTION      0.00  1115.82     0  02:01           0        16.3       0.217
  WS02003073           JUNCTION      1.82  1117.65     0  02:02      0.0514        16.3       0.243
  WS02003060           JUNCTION     16.53  1115.53     0  02:00       0.466        16.3       0.166
  WS02003066           JUNCTION      0.00   816.04     0  01:57           0        9.43       0.050
  WS02003059           JUNCTION      0.00   391.89     0  05:10           0        6.47       0.529
  WS02003067           JUNCTION      0.00   816.00     0  01:57           0        9.44       0.103
  WS02004401           JUNCTION      0.00   817.20     0  01:55           0        9.68       0.230
  WS02004402           JUNCTION      0.00   817.20     0  01:55           0        9.66       0.216
  WS02004403           JUNCTION      0.00   817.18     0  01:55           0        9.64       0.196
  WS02004404           JUNCTION      0.16   817.35     0  01:55     0.00457        9.62       0.147
  WS02004406           JUNCTION      0.00   817.43     0  01:55           0        9.59       0.356
  WS02004409           JUNCTION      0.00   817.32     0  01:55           0        9.55       0.182
  WS02004410           JUNCTION      0.00   816.41     0  01:56           0        9.53       0.205
  WS02004411           JUNCTION      0.00   816.06     0  01:56           0        9.51       0.209
  WS02004412           JUNCTION      0.00   815.99     0  01:57           0        9.49       0.225
  WS02004413           JUNCTION      0.00   815.98     0  01:57           0        9.47       0.329
  WS02004405           JUNCTION      0.04   817.40     0  01:55     0.00107        9.61       0.219
  WS02006109           JUNCTION      1.23   792.03     0  01:54      0.0347        9.71       0.222
  WS02006110           JUNCTION      0.00   792.00     0  01:54           0        9.69       0.220
  WS02006111           JUNCTION      0.00   791.59     0  01:54           0        9.66       0.050
  WS02006112           JUNCTION     26.81   817.21     0  01:55      0.0948        9.75       0.309
  WS02006113           JUNCTION      0.00   791.93     0  01:54           0        9.67       0.104
  WS02006115           JUNCTION      0.00   817.24     0  01:55           0        9.72       0.220
  WS02006116           JUNCTION      0.00   817.25     0  01:55           0         9.7       0.203
  WS02006230           JUNCTION     10.28   399.71     0  05:32        0.29        7.02       0.162
  WS02006231           JUNCTION      0.00   390.95     0  05:31           0        6.74       0.174
  WS02006232           JUNCTION      0.00   391.11     0  05:31           0        6.76       0.244
  WS02006234           JUNCTION      0.00   392.61     0  05:31           0        6.77       0.125
  WS02006235           JUNCTION      0.00   392.52     0  05:31           0        6.87       0.163
  WS02006238           JUNCTION      0.00   340.20     0  03:40           0        5.09       0.152
  WS02006240           JUNCTION      0.00   336.36     0  03:40           0        5.08       0.243
  WS02006242           JUNCTION      0.00   336.04     0  07:21           0        5.08       0.291
  WS02006243           JUNCTION      0.00   339.83     0  07:21           0        5.08       0.013
  WS02006245           JUNCTION      0.00   342.00     0  07:20           0        5.09       0.199
  WS02006247           JUNCTION      0.00   346.45     0  04:21           0        5.09       0.138
  WS02006248           JUNCTION      0.00   352.38     0  04:20           0         5.1       0.087
  WS02006249           JUNCTION      0.00   527.55     0  01:50           0        5.99       0.164
  WS02006239           JUNCTION      0.00   339.69     0  03:40           0        5.08       0.209
  WS02006251           JUNCTION      0.08   534.91     0  01:50     0.00217        6.02       0.149
  WS02006252           JUNCTION      0.00   400.00     0  03:20           0        5.46       0.008
  WS02006253           JUNCTION      3.66   142.87     0  01:54      0.0117       0.564       0.619
  WS02006256           JUNCTION      0.00   600.00     0  00:30           0        6.72       0.046
  WS02004138           JUNCTION      0.00   380.00     0  05:00           0        6.36       0.073
  WS02004407           JUNCTION      0.00   817.43     0  01:55           0        9.55       0.081
  WS02006228           JUNCTION      0.00   790.88     0  01:54           0        9.69       0.154
  WS02006229           JUNCTION      0.00   790.85     0  01:54           0        9.71       0.143
  WS02006280           JUNCTION      0.00   656.05     0  01:55           0         2.7       0.002
  WS02006284           JUNCTION      0.10   655.96     0  01:55      0.0027         2.7       0.040
  WS02006287           JUNCTION      0.00   655.81     0  01:54           0         2.7       0.027
  WSF200               JUNCTION      0.00   816.00     0  01:57           0        9.42       0.050
  HS02004901           JUNCTION     32.57    32.57     0  01:50       0.114       0.115       1.559
  HS02004881           JUNCTION     13.82   139.59     0  01:54      0.0479       0.529       0.091
  HS02004876           JUNCTION     24.51   126.37     0  01:54      0.0923       0.482       0.114
  HS02004870           JUNCTION     25.44   102.13     0  01:54      0.0907        0.39       0.028
  HS02004862           JUNCTION     23.11    77.53     0  01:55       0.099       0.299       0.058
  HS02004856           JUNCTION     19.02    54.51     0  01:55      0.0682       0.202       0.720
  HS02004852           JUNCTION      0.00    36.10     0  01:55           0       0.134       0.042
  HS02004848           JUNCTION     50.49    50.49     0  01:57       0.223       0.223       0.020
  HS02004842           JUNCTION      0.00    15.55     0  02:06           0       0.102      14.564
  HS02004837           JUNCTION     49.08    62.50     0  01:55       0.337       0.426       0.190
  HS02004830           JUNCTION      0.15    62.61     0  01:55     0.00423       0.416       0.297
  HS02004824           JUNCTION     60.06   122.20     0  01:58       0.286       0.702       0.077
  HS02004817           JUNCTION      0.60   124.03     0  01:59      0.0169       0.718       2.378
  HS02004807           JUNCTION     47.25   168.28     0  01:57       0.166       0.868       0.499
  HS02004802           JUNCTION      0.00   169.24     0  01:58           0       0.865       0.460
  HS02004799           JUNCTION     37.43   414.53     0  01:52       0.135        1.57       0.167
  HS02004792           JUNCTION    160.44   377.31     0  01:52       0.598        1.44       0.028
  HS02004788           JUNCTION     53.14   218.54     0  01:53        0.24       0.839       0.046
  HS02004785           JUNCTION      0.15   165.60     0  01:52     0.00423       0.601       0.082
  HS02004777           JUNCTION      0.03   165.80     0  01:51    0.000846       0.601       0.872
  HS02004770           JUNCTION    134.74   166.64     0  01:51        0.49       0.602       0.515
  HS02004480           JUNCTION      0.00   492.23     0  01:53           0        1.85       0.064
  HS02004479           JUNCTION      0.00    78.01     0  01:53           0       0.292       0.252
  HS02004478           JUNCTION      0.00   655.77     0  01:54           0         2.7       0.013
  YS02001745           JUNCTION    386.89   386.89     0  02:16        3.55        3.55       0.314
  YS02001748           JUNCTION      0.04   396.47     0  02:16     0.00127        3.54       0.654
  YS02001751           JUNCTION      0.01   396.11     0  02:16     0.00031        3.52       0.684
  YS02001754           JUNCTION      0.26   396.37     0  02:16     0.00733         3.5       0.702
  YS02001762           JUNCTION      0.00   438.84     0  02:04           0        2.12       1.001
  YS02001765           JUNCTION      0.00   439.15     0  02:04           0        2.12       1.157
  YS02001767           JUNCTION      0.54   438.85     0  02:04      0.0151        2.14       1.694
  YS02001770           JUNCTION    491.42   586.82     0  02:47        3.94        4.36       0.723
  YS02001774           JUNCTION      0.00   587.30     0  02:47           0        2.64       0.949
  YS02001779           JUNCTION      0.01   587.44     0  02:47    0.000141        2.62       0.588
  YS02001882           JUNCTION      0.00    19.35     0  01:52           0      0.0367       6.816
  YS02001884           JUNCTION      0.00    43.96     0  01:53           0      0.0739       9.413
  YS02001759           JUNCTION    476.91   875.00     0  02:05        3.62        5.27       0.433
  YS02001887           JUNCTION    605.93   606.38     0  02:15        4.13        4.16       0.212
  YS02001890           JUNCTION      0.00   606.12     0  02:15           0        4.11       0.233
  YS02001898           JUNCTION      0.00   517.66     0  02:14           0           4       0.083
  YS02001901           JUNCTION      0.00   517.70     0  02:15           0           4       0.176
  YS02001904           JUNCTION      0.00   517.56     0  02:14           0        3.99       0.164
  YS02001907           JUNCTION      0.00  1152.90     0  01:58           0        9.13       0.265
  YS02001910           JUNCTION      0.00   640.14     0  01:58           0        5.15       0.235
  YS02001915           JUNCTION    345.21   640.03     0  01:58        2.96         5.2       0.121
  YS02001918           JUNCTION      0.00   367.29     0  01:58           0        2.28       0.094
  YS02001619           JUNCTION    336.52   336.52     0  02:16        2.95        2.95       0.412
  YS02001629           JUNCTION      0.00   241.73     0  01:47           0        1.44       2.011
  YS02001641           JUNCTION      0.00   419.46     0  01:51           0        4.86       0.431
  YS02001644           JUNCTION    367.62  1379.81     0  02:47        3.42        11.8       0.220
  YS02001652           JUNCTION      0.00   476.63     0  02:16           0        3.05       0.751
  YS02001655           JUNCTION      0.15   478.92     0  02:13     0.00434        3.08       0.836
  YS02001920           JUNCTION      2.87   367.34     0  01:58      0.0809        2.26       0.142
  YS02001923           JUNCTION      0.04   321.37     0  01:56     0.00106        2.16       0.044
  YS02001926           JUNCTION      0.05   310.93     0  01:57     0.00147        2.14       0.143
  YS02001929           JUNCTION    185.81   239.12     0  01:57        2.12        2.13       0.030
  YS02001658           JUNCTION      0.00   494.24     0  02:15           0         3.1       0.772
  YS02001661           JUNCTION      0.00   770.38     0  02:05           0        3.81      -0.162
  YS02001664           JUNCTION    437.54   437.54     0  02:16         3.1        3.81       0.189
  YS02001622           JUNCTION      0.00   336.57     0  02:15           0        2.94       1.090
  YS02001633           JUNCTION    373.18   419.54     0  01:51        3.53        4.92       0.652
  YS02001649           JUNCTION      0.00   969.87     0  02:01           0        6.22       0.595
  YS02001757           JUNCTION      0.00  2140.88     0  02:04           0        10.9       0.849
  YS02001895           JUNCTION      0.00   517.56     0  02:15           0           4       0.136
  YS02001625           JUNCTION      0.00   336.56     0  02:16           0        2.91       1.358
  YS02163301           JUNCTION      0.00   227.50     0  01:48           0        1.44       1.679
  YS02163601           JUNCTION      0.11   419.59     0  01:51      0.0031        4.87       0.616
  YS02164001           JUNCTION      0.00   419.49     0  01:51           0        4.85       0.409
  YS02001647           JUNCTION      0.00   657.30     0  02:47           0        5.07       0.561
  YSB1154              JUNCTION     43.61    43.61     0  01:53       0.163       0.164       0.888
  YSB6556              JUNCTION      0.00    43.64     0  01:53           0       0.165       0.765
  YSB1174              JUNCTION     35.87    35.87     0  01:50        0.12        0.12       1.078
  YSB1171              JUNCTION      0.00    78.03     0  01:52           0       0.291       2.227
  YS02006553           JUNCTION      0.00   683.57     0  03:22           0        7.12       0.220
  YS02006561           JUNCTION      0.00  1006.10     0  01:54           0        10.9       0.007
  YS02006556           JUNCTION      0.00   683.29     0  03:22           0        7.13       0.160
  YS02006558           JUNCTION    522.52  1006.03     0  01:54        3.81        10.9       0.050
  YS02001783           JUNCTION      0.00   998.47     0  01:55           0        10.9       0.023
  YS02001784           JUNCTION      1.06   999.49     0  01:55      0.0299        10.9       0.036
  YS02001786           JUNCTION      0.06   999.52     0  01:54     0.00159        10.9       0.032
  YS02001788           JUNCTION      0.07   969.47     0  02:15       0.002        10.9       0.018
  YS02001790           JUNCTION      0.15   969.73     0  02:15     0.00437        10.9       0.024
  YS02001791           JUNCTION      0.00   969.58     0  02:15           0        10.9       0.006
  YS02001793           JUNCTION      0.00   969.73     0  02:14           0        10.9       0.006
  WS02004139           JUNCTION      0.32   380.32     0  05:02     0.00905        6.36       0.525
  WSC                  OUTFALL       0.00  1117.72     0  02:03           0        16.2       0.000
  3                    OUTFALL       0.00   525.96     0  02:50           0         4.9       0.000
  4                    OUTFALL       0.00   304.26     0  01:50           0       0.885       0.000
  5                    OUTFALL       0.00     0.00     0  00:00           0           0       0.000 ltr
  JK-storage           STORAGE       0.00   992.01     0  01:53           0        11.1      -4.208
  CC-storage           STORAGE       0.00  2140.92     0  02:04           0        9.16       0.698
  XR-storage           STORAGE     844.69   844.69     0  03:01        12.1        12.7      -0.001
  
  
  **********************
  Node Surcharge Summary
  **********************
  
  Surcharging occurs when water rises above the top of the highest conduit.
  ---------------------------------------------------------------------
                                               Max. Height   Min. Depth
                                   Hours       Above Crown    Below Rim
  Node                 Type      Surcharged         Meters       Meters
  ---------------------------------------------------------------------
  WS02004401           JUNCTION        0.55          0.118        1.542
  WS02004402           JUNCTION        0.59          0.120        1.620
  WS02004403           JUNCTION        0.60          0.108        1.922
  WS02004404           JUNCTION        0.84          0.160        2.620
  WS02004406           JUNCTION        0.73          0.109        2.341
  WS02004405           JUNCTION        0.78          0.141        2.659
  WS02006109           JUNCTION        2.98          0.452        1.368
  WS02006110           JUNCTION        1.45          0.209        1.641
  WS02006112           JUNCTION        1.57          0.400        1.280
  WS02006115           JUNCTION        0.31          0.063        2.187
  WS02006116           JUNCTION        0.37          0.069        2.221
  WS02006230           JUNCTION        0.79          0.317        1.253
  WS02006231           JUNCTION        1.21          0.319        1.211
  WS02006232           JUNCTION        3.15          0.467        1.013
  WS02006234           JUNCTION        1.42          0.399        0.841
  WS02006235           JUNCTION        2.43          0.398        0.892
  WS02006238           JUNCTION        2.73          0.413        1.017
  WS02006240           JUNCTION        1.29          0.632        0.758
  WS02006242           JUNCTION        2.44          0.820        0.000
  WS02006243           JUNCTION        0.67          0.488        0.282
  WS02006245           JUNCTION        0.27          0.126        0.724
  WS02006247           JUNCTION        0.24          0.362        0.398
  WS02006239           JUNCTION        1.60          0.469        0.821
  WS02006252           JUNCTION        2.39          0.193        0.907
  WS02006228           JUNCTION        2.91          0.565        1.635
  YS02001748           JUNCTION        5.99          0.285        0.905
  YS02001751           JUNCTION        6.02          0.654        0.546
  YS02001754           JUNCTION        6.05          0.788        0.362
  YS02001762           JUNCTION        6.09          1.042        0.108
  YS02001765           JUNCTION        6.08          0.988        0.112
  YS02001767           JUNCTION        6.07          0.946        0.084
  YS02001770           JUNCTION        6.07          0.899        0.021
  YS02001774           JUNCTION        6.08          0.985        0.065
  YS02001779           JUNCTION        6.04          0.680        0.000
  YS02001882           JUNCTION        1.76          0.674        0.156
  YS02001884           JUNCTION        1.79          0.704        0.166
  YS02001759           JUNCTION        6.09          1.080        0.130
  YS02001887           JUNCTION        1.87          0.772        0.178
  YS02001890           JUNCTION        1.90          0.760        0.000
  YS02001898           JUNCTION        1.71          0.552        0.188
  YS02001901           JUNCTION        1.83          0.702        0.168
  YS02001904           JUNCTION        1.81          0.665        0.185
  YS02001907           JUNCTION        2.26          0.950        0.000
  YS02001910           JUNCTION        1.94          0.959        0.141
  YS02001915           JUNCTION        1.74          0.901        0.099
  YS02001918           JUNCTION        1.52          0.810        0.000
  YS02001619           JUNCTION        6.02          0.610        0.000
  YS02001629           JUNCTION        6.02          0.470        0.000
  YS02001641           JUNCTION        6.08          0.935        0.165
  YS02001644           JUNCTION        6.08          0.920        0.000
  YS02001652           JUNCTION        6.05          1.130        0.000
  YS02001655           JUNCTION        6.02          1.200        0.000
  YS02001920           JUNCTION        1.56          0.927        0.213
  YS02001923           JUNCTION        0.01          0.670        0.150
  YS02001926           JUNCTION        0.01          0.900        0.000
  YS02001658           JUNCTION        5.99          1.247        0.053
  YS02001661           JUNCTION        0.35          1.306        0.084
  YS02001622           JUNCTION        6.02          0.620        0.000
  YS02001633           JUNCTION        6.08          0.925        0.135
  YS02001649           JUNCTION        6.08          1.050        0.000
  YS02001757           JUNCTION        6.12          1.182        0.028
  YS02001895           JUNCTION        1.73          0.572        0.178
  YS02001625           JUNCTION        6.05          0.780        0.000
  YS02163301           JUNCTION        6.07          0.904        0.126
  YS02163601           JUNCTION        6.09          0.987        0.093
  YS02164001           JUNCTION        6.08          0.918        0.182
  YS02001647           JUNCTION        6.05          0.802        0.098
  YS02006553           JUNCTION        2.31          1.178        0.012
  YS02006561           JUNCTION        1.64          1.150        0.000
  YS02006556           JUNCTION        2.11          1.350        0.000
  YS02006558           JUNCTION        2.08          1.400        0.000
  YS02001783           JUNCTION        2.13          1.554        0.046
  YS02001784           JUNCTION        2.18          1.489        0.001
  YS02001786           JUNCTION        2.10          1.430        0.000
  YS02001788           JUNCTION        2.08          1.480        0.000
  YS02001790           JUNCTION        3.01          1.157        0.000
  YS02001791           JUNCTION        3.08          1.920        0.000
  YS02001793           JUNCTION        3.23          1.987        0.613
  
  
  *********************
  Node Flooding Summary
  *********************
  
  Flooding refers to all water that overflows a node, whether it ponds or not.
  --------------------------------------------------------------------------
                                                             Total   Maximum
                                 Maximum   Time of Max       Flood    Ponded
                        Hours       Rate    Occurrence      Volume     Depth
  Node                 Flooded       LPS   days hr:min    10^6 ltr    Meters
  --------------------------------------------------------------------------
  WS02006242              0.01     52.90      0  01:46       0.000     0.000
  YS02001779              3.27    587.41      0  02:47       2.598     0.000
  YS02001890              0.57     89.61      0  02:15       0.101     0.000
  YS02001907              1.39    626.56      0  01:58       1.996     0.000
  YS02001918              0.01      6.40      0  01:57       0.000     0.000
  YS02001619              0.01     65.70      0  01:48       0.000     0.000
  YS02001629              0.01    197.71      0  01:47       0.001     0.000
  YS02001644              5.38   1379.71      0  02:47      10.175     0.000
  YS02001652              0.01      8.25      0  02:24       0.000     0.000
  YS02001655              0.01    102.43      0  01:48       0.000     0.000
  YS02001926              0.01    117.62      0  01:57       0.000     0.000
  YS02001622              0.01     66.79      0  01:47       0.000     0.000
  YS02001649              0.10     35.78      0  02:18       0.004     0.000
  YS02001625              2.02    326.07      0  02:16       1.447     0.000
  YS02006561              0.01     82.06      0  01:55       0.000     0.000
  YS02006556              0.01     11.58      0  01:55       0.000     0.000
  YS02006558              0.01      6.36      0  01:55       0.000     0.000
  YS02001786              0.01     87.22      0  01:55       0.000     0.000
  YS02001788              0.01    183.05      0  01:55       0.000     0.000
  YS02001790              0.01    202.25      0  01:54       0.000     0.000
  YS02001791              0.01    189.39      0  01:54       0.000     0.000
  JK-storage              2.83    960.73      0  03:20       4.872     0.000
  XR-storage              5.61    717.04      0  02:40       5.426     0.000
  
  
  **********************
  Storage Volume Summary
  **********************
  
  --------------------------------------------------------------------------------------------------
                         Average     Avg  Evap Exfil       Maximum     Max    Time of Max    Maximum
                          Volume    Pcnt  Pcnt  Pcnt        Volume    Pcnt     Occurrence    Outflow
  Storage Unit           1000 m3    Full  Loss  Loss       1000 m3    Full    days hr:min        LPS
  --------------------------------------------------------------------------------------------------
  JK-storage               0.181      62     0     0         0.291     100       0  01:55     621.40
  CC-storage               3.263      21     0     0         3.909      25       0  03:06     400.00
  XR-storage               0.904      98     0     0         0.926     100       0  01:53     380.00
  
  
  ***********************
  Outfall Loading Summary
  ***********************
  
  -----------------------------------------------------------
                         Flow       Avg       Max       Total
                         Freq      Flow      Flow      Volume
  Outfall Node           Pcnt       LPS       LPS    10^6 ltr
  -----------------------------------------------------------
  WSC                  100.00    656.84   1117.72      16.246
  3                     85.64    259.04    525.96       4.905
  4                     50.44     74.13    304.26       0.885
  5                      0.00      0.00      0.00       0.000
  -----------------------------------------------------------
  System                59.02    990.02   1624.48      22.036
  
  
  ********************
  Link Flow Summary
  ********************
  
  -----------------------------------------------------------------------------
                                 Maximum  Time of Max   Maximum    Max/    Max/
                                  |Flow|   Occurrence   |Veloc|    Full    Full
  Link                 Type          LPS  days hr:min     m/sec    Flow   Depth
  -----------------------------------------------------------------------------
  WS02003066WSF200     CONDUIT    816.00     0  01:57      2.94    0.14    0.29
  WS02006287WS02006284 CONDUIT    655.87     0  01:55      2.36    0.30    0.38
  WS02006284WS02006280 CONDUIT    656.05     0  01:55      2.59    0.27    0.36
  WS02006280WS02006229 CONDUIT    656.06     0  01:55      4.21    0.14    0.25
  WS02006229WS02006228 CONDUIT    790.88     0  01:54      1.57    2.62    1.00
  WS02006256WS02006235 CONDUIT    158.11     0  00:23      2.30    1.67    1.00
  WS02006253WS02006251 CONDUIT    148.67     0  01:51      0.59    0.45    1.00
  WS02006252WS02006251 CONDUIT    400.62     0  03:38      3.19    1.47    1.00
  WS02006251WS02006249 CONDUIT    527.55     0  01:50      1.37    1.52    0.99
  WS02006249WS02006248 CONDUIT    352.38     0  04:20      1.15    1.93    0.97
  WS02006248WS02006247 CONDUIT    346.45     0  04:21      1.10    0.75    1.00
  WS02006247WS02006245 CONDUIT    342.00     0  07:20      1.06    2.71    1.00
  WS02006245WS02006243 CONDUIT    339.83     0  07:21      1.07    1.01    1.00
  WS02006243WS02006242 CONDUIT    336.04     0  07:21      0.97    0.72    1.00
  WS02006242WS02006240 CONDUIT    336.36     0  03:40      0.93    1.34    1.00
  WS02006240WS02006239 CONDUIT    339.69     0  03:40      0.98    1.07    1.00
  WS02006239WS02006238 CONDUIT    340.20     0  03:40      0.91    1.09    1.00
  WS02006238WS02006235 CONDUIT    340.19     0  03:40      0.91    0.76    1.00
  WS02006235WS02006234 CONDUIT    392.61     0  05:31      1.04    4.14    1.00
  WS02006234WS02006232 CONDUIT    391.11     0  05:31      1.02    0.79    1.00
  WS02006232WS02006231 CONDUIT    390.95     0  05:31      1.06    0.82    1.00
  WS02006231WS02006230 CONDUIT    389.43     0  05:32      1.34    5.91    1.00
  WS02006230WS02006229 CONDUIT    399.28     0  05:32      1.04    8.89    1.00
  WS02006228WS02006109 CONDUIT    790.80     0  01:54      1.57    3.46    1.00
  WS02006116WS02004401 CONDUIT    817.20     0  01:55      1.04    1.13    1.00
  WS02006115WS02006116 CONDUIT    817.25     0  01:55      1.04    1.05    1.00
  WS02006113WS02006111 CONDUIT    791.59     0  01:54      2.65    0.95    0.78
  WS02006112WS02006115 CONDUIT    817.24     0  01:55      1.04    0.48    1.00
  WS02006111WS02006112 CONDUIT    792.24     0  01:55      1.79    0.38    0.88
  WS02006110WS02006113 CONDUIT    791.93     0  01:54      1.69    0.72    0.89
  WS02006109WS02006110 CONDUIT    792.00     0  01:54      1.58    1.52    1.00
  WS02004411WS02004412 CONDUIT    815.99     0  01:57      1.15    1.16    0.85
  WS02004401WS02004402 CONDUIT    817.20     0  01:55      1.04    0.98    1.00
  WS02004413WS02003067 CONDUIT    816.00     0  01:57      1.41    0.35    0.69
  WS02004412WS02004413 CONDUIT    815.98     0  01:57      1.09    0.55    0.91
  WS02004410WS02004411 CONDUIT    816.06     0  01:56      1.14    1.11    0.86
  WS02004409WS02004410 CONDUIT    816.41     0  01:56      1.14    1.06    0.86
  WS02004407WS02004409 CONDUIT    817.32     0  01:55      1.66    0.29    0.61
  WS02004406WS02004407 CONDUIT    817.43     0  01:55      1.43    0.37    0.68
  WS02004405WS02004406 CONDUIT    817.43     0  01:55      1.04    1.61    1.00
  WS02004404WS02004405 CONDUIT    817.36     0  01:55      1.04    8.01    1.00
  WS02004403WS02004404 CONDUIT    817.19     0  01:55      1.04    0.59    1.00
  WS02004402WS02004403 CONDUIT    817.18     0  01:55      1.04    1.17    1.00
  WS02004139WS02001211 CONDUIT    381.01     0  05:10      0.81    0.48    0.59
  WS02004138WS02004139 CONDUIT    380.00     0  05:02      3.34    0.08    0.44
  WS02003067WS02003066 CONDUIT    816.04     0  01:57      1.52    0.26    0.48
  WS02001213WS02003059 CONDUIT    391.89     0  05:10      0.78    0.65    0.80
  WS02001212WS02001213 CONDUIT    390.18     0  05:10      1.19    0.60    0.48
  WS02001211WS02001212 CONDUIT    389.20     0  05:10      0.75    0.30    0.64
  WS02003072WS02003073 CONDUIT   1115.83     0  02:02      1.84    2.41    0.53
  WS02003069WS02003072 CONDUIT   1115.82     0  02:01      1.71    0.54    0.56
  WS02003060WS02003069 CONDUIT   1115.55     0  02:01      1.94    0.44    0.51
  WS02003059WS02003060 CONDUIT    394.28     0  05:11      0.82    0.26    0.70
  HS02004901HS02004770 CONDUIT     31.96     0  01:52      0.09    0.12    0.51
  HS02004876HS02004881 CONDUIT    126.38     0  01:55      1.20    1.34    0.15
  HS02004870HS02004876 CONDUIT    102.10     0  01:55      0.82    0.07    0.18
  HS02004842HS02004848 CONDUIT     15.55     0  02:06      0.07    0.01    0.33
  HS02004837HS02004842 CONDUIT     15.96     0  02:07      0.42    0.01    0.35
  HS02004830HS02004837 CONDUIT     62.46     0  01:55      0.66    0.06    0.14
  HS02004824HS02004830 CONDUIT     62.57     0  01:56      0.62    0.08    0.16
  HS02004817HS02004824 CONDUIT    123.43     0  01:59      0.31    0.06    0.58
  HS02004770HS02004777 CONDUIT    165.77     0  01:51      0.46    0.30    0.52
  HS02004799HS02004480 CONDUIT    414.30     0  01:53      1.02    0.52    0.58
  HS02004792HS02004799 CONDUIT    377.21     0  01:52      1.15    0.23    0.47
  HS02004788HS02004792 CONDUIT    218.45     0  01:53      1.24    0.14    0.25
  HS02004785HS02004788 CONDUIT    165.54     0  01:53      0.86    1.25    0.27
  HS02004777HS02004785 CONDUIT    165.45     0  01:52      0.54    0.20    0.44
  HS02004480HS02004478 CONDUIT    492.14     0  01:53      1.52    2.07    0.46
  HS02004479HS02004480 CONDUIT     78.31     0  01:54      0.27    0.08    0.55
  HS02004862HS02004870 CONDUIT     77.52     0  01:55      0.79    0.08    0.14
  HS02004848HS02004852 CONDUIT     36.10     0  01:55      0.52    0.04    0.10
  HS02004856HS02004862 CONDUIT     54.46     0  01:55      0.59    0.05    0.13
  HS02004852HS02004856 CONDUIT     36.15     0  01:56      0.33    0.04    0.16
  HS02004802HS02004478 CONDUIT    170.22     0  01:58      0.53    0.15    0.47
  HS02004478WS02006287 CONDUIT    655.81     0  01:54      2.08    0.18    0.35
  HS02004817HS02004807 CONDUIT    125.36     0  01:59      0.24    0.07    0.75
  HS02004807HS02004802 CONDUIT    169.24     0  01:58      0.47    0.32    0.53
  YS02001759YS02001757 CONDUIT    874.97     0  02:05      1.11    0.62    1.00
  YS02001762YS02001759 CONDUIT    438.81     0  02:04      0.56    0.51    1.00
  YS02001765YS02001762 CONDUIT    438.84     0  02:04      0.56    0.41    1.00
  YS02001770YS02001767 CONDUIT    438.32     0  02:04      0.56    1.74    1.00
  YS02001774YS02001770 CONDUIT    587.30     0  02:47      0.75    0.38    1.00
  YS02001779YS02001774 CONDUIT    587.43     0  02:47      0.75    0.30    1.00
  YS02001649YS02001757 CONDUIT    969.64     0  02:00      1.23    0.59    1.00
  YS02001767YS02001765 CONDUIT    439.15     0  02:04      0.56    0.55    1.00
  YS02006561YS02001783 CONDUIT    998.47     0  01:55      2.24    0.52    1.00
  YS02001783YS02001784 CONDUIT    998.43     0  01:55      1.99    1.38    1.00
  YS02001784YS02001785 CONDUIT    999.47     0  01:54      2.03    2.33    1.00
  YS02001788YS02001790 CONDUIT    969.58     0  02:15      2.46    0.71    1.00
  YS02001790YS02001791 CONDUIT    969.58     0  02:15      3.02    1.05    1.00
  YS02001791YS02001793 CONDUIT    969.73     0  02:14      5.89    0.42    1.00
  YS02001910YS02001907 CONDUIT    640.29     0  01:58      0.82    0.36    1.00
  YS02001786YS02001788 CONDUIT    969.40     0  02:15      2.32    1.87    1.00
  YS02001915YS02001910 CONDUIT    640.14     0  01:58      0.82    0.32    1.00
  YS02001918YS02001915 CONDUIT    367.90     0  01:58      0.48    0.20    1.00
  YS02001923YS02001920 CONDUIT    364.47     0  01:58      0.78    0.16    1.00
  YS02001926YS02001923 CONDUIT    301.80     0  01:59      0.87    0.43    1.00
  YS02001929YS02001926 CONDUIT    241.63     0  01:58      0.93    0.11    0.98
  YS02001920YS02001918 CONDUIT    367.29     0  01:58      0.76    0.36    1.00
  YS02001629YS02163301 CONDUIT    227.50     0  01:48      0.29    0.28    1.00
  YS02001619YS02001622 CONDUIT    336.57     0  02:15      0.76    0.50    1.00
  YS02001622YS02001625 CONDUIT    336.56     0  02:16      0.43    0.18    1.00
  YS02001625YS02001629 CONDUIT    210.50     0  01:47      0.31    0.10    1.00
  YS02163301YS02001633 CONDUIT    227.61     0  01:48      0.29    0.21    1.00
  YS02163601YS02164001 CONDUIT    419.49     0  01:51      0.53    0.37    1.00
  YS02164001YS02001641 CONDUIT    419.46     0  01:51      0.53    0.57    1.00
  YS02001641YS02001644 CONDUIT    418.79     0  01:51      0.53    1.35    1.00
  YS02001647YS02001649 CONDUIT    657.30     0  02:47      0.84    0.35    1.00
  YS02006553YS02006556 CONDUIT    683.29     0  03:22      0.87    0.58    1.00
  YS02006556YS02006558 CONDUIT    683.71     0  03:21      0.87    0.54    1.00
  YSB6556YSB1171       CONDUIT     43.98     0  01:54      0.13    0.05    0.82
  YS02001907YS02006553 CONDUIT    683.57     0  03:22      0.76    0.80    1.00
  YS02006558YS02006561 CONDUIT   1006.10     0  01:54      3.68    2.22    1.00
  YS02001633YS02163601 CONDUIT    419.48     0  01:51      0.53    0.44    1.00
  YS02001644YS02001647 CONDUIT    657.50     0  02:47      0.84    0.39    1.00
  YS02001745YS02001748 CONDUIT    396.42     0  02:16      1.73    0.15    0.96
  YS02001748YS02001751 CONDUIT    396.10     0  02:16      1.26    0.20    1.00
  YS02001751YS02001754 CONDUIT    396.11     0  02:16      1.03    0.19    1.00
  YS02001754YS02001757 CONDUIT    396.25     0  02:16      0.50    0.16    1.00
  YS02001882YS02001884 CONDUIT     19.35     0  01:52      0.12    0.02    1.00
  YS02001884YS02001887 CONDUIT     43.96     0  01:53      0.09    0.06    1.00
  YS02001890YS02001895 CONDUIT    517.56     0  02:15      0.66    0.24    1.00
  YS02001895YS02001898 CONDUIT    517.66     0  02:14      0.66    0.90    1.00
  YS02001898YS02001901 CONDUIT    517.70     0  02:15      0.66    0.33    1.00
  YS02001901YS02001904 CONDUIT    517.56     0  02:14      0.66    0.80    1.00
  YS02001904YS02001907 CONDUIT    517.57     0  02:14      0.66    0.18    1.00
  YS02001887YS02001890 CONDUIT    606.12     0  02:15      0.77    1.04    1.00
  YS02001652YS02001649 CONDUIT    476.80     0  02:16      0.61    0.24    1.00
  YS02001655YS02001652 CONDUIT    476.63     0  02:16      1.09    0.23    1.00
  YS02001658YS02001655 CONDUIT    478.77     0  02:13      1.45    0.20    1.00
  YS02001661YS02001658 CONDUIT    494.24     0  02:15      1.85    0.19    1.00
  YS02001664YS02001661 CONDUIT    770.38     0  02:05      1.75    0.24    0.76
  YSB1154YSB6556       CONDUIT     43.64     0  01:53      0.18    0.08    0.72
  YSB1174YSB1171       CONDUIT     35.15     0  01:50      0.10    0.05    0.83
  YSB1171HS02004479    CONDUIT     78.01     0  01:53      0.54    0.05    0.67
  HS02004881HS02006253 CONDUIT    139.58     0  01:55      2.25    0.03    0.38
  YS02001793JiankangQianchi CONDUIT    992.01     0  01:53     14.01    0.08    1.00
  YS02001757CaochengTiaoxuchi CONDUIT   2140.92     0  02:04      3.76    0.94    1.00
  WSF200WS02003060     CONDUIT    815.60     0  01:58      1.94    0.18    0.40
  1                    CONDUIT   1117.72     0  02:03      3.43    0.39    0.43
  2                    CONDUIT    304.26     0  01:50      6.44    0.73    0.63
  3                    CONDUIT    525.96     0  02:50     10.23    0.84    0.71
  4                    CONDUIT      0.00     0  00:00      0.00    0.00    0.00
  CC-Pump-1            PUMP       200.00     0  02:40              1.00
  CC-Pump-2            PUMP       200.00     0  01:50              1.00
  JK-Pump-1            PUMP       300.00     0  00:30              1.00
  JK-Pump-2            PUMP       300.00     0  00:30              1.00
  XR-Pump-1            PUMP        95.00     0  00:00              1.00
  XR-Pump-2            PUMP        95.00     0  01:30              1.00
  XR-Pump-3            PUMP        95.00     0  00:00              1.00
  XR-Pump-4            PUMP        95.00     0  00:00              1.00
  
  
  ***************************
  Flow Classification Summary
  ***************************
  
  -------------------------------------------------------------------------------------
                      Adjusted    ---------- Fraction of Time in Flow Class ---------- 
                       /Actual         Up    Down  Sub   Sup   Up    Down  Norm  Inlet 
  Conduit               Length    Dry  Dry   Dry   Crit  Crit  Crit  Crit  Ltd   Ctrl  
  -------------------------------------------------------------------------------------
  WS02003066WSF200        1.00   0.06  0.00  0.00  0.00  0.94  0.00  0.00  0.57  0.00
  WS02006287WS02006284    1.00   0.03  0.01  0.00  0.59  0.37  0.00  0.00  0.65  0.00
  WS02006284WS02006280    1.00   0.04  0.00  0.00  0.00  0.00  0.00  0.96  0.00  0.00
  WS02006280WS02006229    1.00   0.04  0.00  0.00  0.00  0.00  0.00  0.96  0.00  0.00
  WS02006229WS02006228    1.00   0.00  0.00  0.00  1.00  0.00  0.00  0.00  0.00  0.00
  WS02006256WS02006235    1.00   0.01  0.00  0.00  0.99  0.00  0.00  0.00  0.00  0.00
  WS02006253WS02006251    1.00   0.01  0.02  0.00  0.96  0.00  0.00  0.00  0.00  0.00
  WS02006252WS02006251    1.00   0.05  0.00  0.00  0.00  0.00  0.95  0.00  0.00  0.00
  WS02006251WS02006249    1.00   0.00  0.00  0.00  1.00  0.00  0.00  0.00  0.18  0.00
  WS02006249WS02006248    1.00   0.00  0.00  0.00  0.94  0.00  0.05  0.00  0.00  0.00
  WS02006248WS02006247    1.00   0.00  0.00  0.00  0.98  0.00  0.00  0.02  0.06  0.00
  WS02006247WS02006245    1.00   0.00  0.00  0.00  0.98  0.00  0.00  0.02  0.00  0.00
  WS02006245WS02006243    1.00   0.00  0.00  0.00  0.96  0.00  0.00  0.03  0.01  0.00
  WS02006243WS02006242    1.00   0.01  0.00  0.00  0.99  0.00  0.00  0.00  0.13  0.00
  WS02006242WS02006240    1.00   0.01  0.00  0.00  0.99  0.00  0.00  0.00  0.00  0.00
  WS02006240WS02006239    1.00   0.01  0.00  0.00  0.98  0.00  0.00  0.02  0.01  0.00
  WS02006239WS02006238    1.00   0.01  0.00  0.00  0.99  0.00  0.00  0.00  0.00  0.00
  WS02006238WS02006235    1.00   0.01  0.00  0.00  0.99  0.00  0.00  0.00  0.00  0.00
  WS02006235WS02006234    1.00   0.01  0.00  0.00  0.97  0.00  0.02  0.00  0.00  0.00
  WS02006234WS02006232    1.00   0.01  0.00  0.00  0.99  0.00  0.00  0.00  0.00  0.00
  WS02006232WS02006231    1.00   0.01  0.00  0.00  0.99  0.00  0.00  0.00  0.00  0.00
  WS02006231WS02006230    1.00   0.01  0.00  0.00  0.64  0.00  0.35  0.00  0.00  0.00
  WS02006230WS02006229    1.00   0.00  0.00  0.00  1.00  0.00  0.00  0.00  0.00  0.00
  WS02006228WS02006109    1.00   0.00  0.00  0.00  1.00  0.00  0.00  0.00  0.00  0.00
  WS02006116WS02004401    1.00   0.02  0.00  0.00  0.98  0.00  0.00  0.00  0.00  0.00
  WS02006115WS02006116    1.00   0.02  0.00  0.00  0.97  0.00  0.00  0.00  0.00  0.00
  WS02006113WS02006111    1.00   0.02  0.00  0.00  0.06  0.92  0.00  0.00  0.09  0.00
  WS02006112WS02006115    1.00   0.02  0.01  0.00  0.97  0.00  0.00  0.00  0.00  0.00
  WS02006111WS02006112    1.00   0.02  0.00  0.00  0.98  0.00  0.00  0.00  0.84  0.00
  WS02006110WS02006113    1.00   0.00  0.01  0.00  0.98  0.00  0.00  0.00  0.00  0.00
  WS02006109WS02006110    1.00   0.00  0.00  0.00  1.00  0.00  0.00  0.00  0.00  0.00
  WS02004411WS02004412    1.00   0.04  0.00  0.00  0.96  0.00  0.00  0.00  0.00  0.00
  WS02004401WS02004402    1.00   0.03  0.00  0.00  0.97  0.00  0.00  0.00  0.00  0.00
  WS02004413WS02003067    1.00   0.04  0.01  0.00  0.00  0.00  0.95  0.00  0.00  0.00
  WS02004412WS02004413    1.00   0.04  0.00  0.00  0.96  0.00  0.00  0.00  0.03  0.00
  WS02004410WS02004411    1.00   0.04  0.00  0.00  0.96  0.00  0.00  0.00  0.02  0.00
  WS02004409WS02004410    1.00   0.04  0.00  0.00  0.96  0.00  0.00  0.00  0.00  0.00
  WS02004407WS02004409    1.00   0.03  0.00  0.00  0.96  0.00  0.00  0.00  0.86  0.00
  WS02004406WS02004407    1.00   0.00  0.03  0.00  0.97  0.00  0.00  0.00  0.00  0.00
  WS02004405WS02004406    1.00   0.00  0.00  0.00  1.00  0.00  0.00  0.00  0.04  0.00
  WS02004404WS02004405    1.00   0.00  0.00  0.00  1.00  0.00  0.00  0.00  0.00  0.00
  WS02004403WS02004404    1.00   0.00  0.03  0.00  0.97  0.00  0.00  0.00  0.01  0.00
  WS02004402WS02004403    1.00   0.03  0.00  0.00  0.97  0.00  0.00  0.00  0.00  0.00
  WS02004139WS02001211    1.00   0.00  0.00  0.00  1.00  0.00  0.00  0.00  0.00  0.00
  WS02004138WS02004139    1.00   0.00  0.00  0.00  1.00  0.00  0.00  0.00  1.00  0.00
  WS02003067WS02003066    1.00   0.05  0.01  0.00  0.94  0.00  0.00  0.00  0.00  0.00
  WS02001213WS02003059    1.00   0.00  0.00  0.00  1.00  0.00  0.00  0.00  0.00  0.00
  WS02001212WS02001213    1.00   0.00  0.00  0.00  0.92  0.00  0.07  0.00  0.00  0.00
  WS02001211WS02001212    1.00   0.00  0.00  0.00  1.00  0.00  0.00  0.00  0.00  0.00
  WS02003072WS02003073    1.00   0.00  0.00  0.00  0.00  0.00  0.00  1.00  0.00  0.00
  WS02003069WS02003072    1.00   0.00  0.00  0.00  1.00  0.00  0.00  0.00  0.19  0.00
  WS02003060WS02003069    1.00   0.00  0.00  0.00  1.00  0.00  0.00  0.00  0.12  0.00
  WS02003059WS02003060    1.00   0.00  0.00  0.00  1.00  0.00  0.00  0.00  0.01  0.00
  HS02004901HS02004770    1.00   0.03  0.00  0.00  0.97  0.00  0.00  0.00  0.00  0.00
  HS02004876HS02004881    1.00   0.00  0.00  0.00  0.86  0.14  0.00  0.00  0.00  0.00
  HS02004870HS02004876    1.00   0.00  0.00  0.00  1.00  0.00  0.00  0.00  0.95  0.00
  HS02004842HS02004848    1.00   0.00  0.03  0.00  0.97  0.00  0.00  0.00  0.57  0.00
  HS02004837HS02004842    1.00   0.00  0.00  0.00  1.00  0.00  0.00  0.00  0.11  0.00
  HS02004830HS02004837    1.00   0.00  0.00  0.00  1.00  0.00  0.00  0.00  0.99  0.00
  HS02004824HS02004830    1.00   0.00  0.00  0.00  1.00  0.00  0.00  0.00  0.03  0.00
  HS02004817HS02004824    1.00   0.00  0.00  0.00  1.00  0.00  0.00  0.00  0.94  0.00
  HS02004770HS02004777    1.00   0.00  0.03  0.00  0.97  0.00  0.00  0.00  0.03  0.00
  HS02004799HS02004480    1.00   0.00  0.01  0.00  0.96  0.00  0.03  0.00  0.00  0.00
  HS02004792HS02004799    1.00   0.00  0.00  0.00  1.00  0.00  0.00  0.00  0.98  0.00
  HS02004788HS02004792    1.00   0.00  0.00  0.00  1.00  0.00  0.00  0.00  0.98  0.00
  HS02004785HS02004788    1.00   0.00  0.00  0.00  1.00  0.00  0.00  0.00  0.00  0.00
  HS02004777HS02004785    1.00   0.00  0.00  0.00  1.00  0.00  0.00  0.00  0.13  0.00
  HS02004480HS02004478    1.00   0.04  0.00  0.00  0.64  0.00  0.00  0.32  0.00  0.00
  HS02004479HS02004480    1.00   0.01  0.00  0.00  0.99  0.00  0.00  0.00  0.12  0.00
  HS02004862HS02004870    1.00   0.00  0.00  0.00  1.00  0.00  0.00  0.00  0.04  0.00
  HS02004848HS02004852    1.00   0.03  0.00  0.00  0.97  0.00  0.00  0.00  0.78  0.00
  HS02004856HS02004862    1.00   0.00  0.04  0.00  0.96  0.00  0.00  0.00  0.82  0.00
  HS02004852HS02004856    1.00   0.03  0.00  0.00  0.96  0.00  0.00  0.00  0.77  0.00
  HS02004802HS02004478    1.00   0.04  0.00  0.00  0.96  0.00  0.00  0.00  0.03  0.00
  HS02004478WS02006287    1.00   0.04  0.00  0.00  0.69  0.27  0.00  0.00  0.62  0.00
  HS02004817HS02004807    1.00   0.00  0.03  0.00  0.97  0.00  0.00  0.00  0.01  0.00
  HS02004807HS02004802    1.00   0.03  0.00  0.00  0.96  0.00  0.00  0.00  0.00  0.00
  YS02001759YS02001757    1.00   0.00  0.00  0.00  1.00  0.00  0.00  0.00  0.16  0.00
  YS02001762YS02001759    1.00   0.00  0.00  0.00  1.00  0.00  0.00  0.00  0.03  0.00
  YS02001765YS02001762    1.00   0.00  0.00  0.00  1.00  0.00  0.00  0.00  0.14  0.00
  YS02001770YS02001767    1.00   0.00  0.00  0.00  1.00  0.00  0.00  0.00  0.00  0.00
  YS02001774YS02001770    1.00   0.00  0.04  0.00  0.96  0.00  0.00  0.00  0.03  0.00
  YS02001779YS02001774    1.00   0.00  0.00  0.00  1.00  0.00  0.00  0.00  0.18  0.00
  YS02001649YS02001757    1.00   0.00  0.00  0.00  1.00  0.00  0.00  0.00  0.16  0.00
  YS02001767YS02001765    1.00   0.00  0.00  0.00  1.00  0.00  0.00  0.00  0.00  0.00
  YS02006561YS02001783    1.00   0.04  0.00  0.00  0.48  0.48  0.00  0.00  0.50  0.00
  YS02001783YS02001784    1.00   0.00  0.04  0.00  0.96  0.00  0.00  0.00  0.00  0.00
  YS02001784YS02001785    1.00   0.00  0.00  0.00  1.00  0.00  0.00  0.00  0.17  0.00
  YS02001788YS02001790    1.00   0.00  0.00  0.00  0.53  0.47  0.00  0.00  0.44  0.00
  YS02001790YS02001791    1.00   0.00  0.00  0.00  0.50  0.50  0.00  0.00  0.37  0.00
  YS02001791YS02001793    1.00   0.00  0.00  0.00  0.54  0.46  0.00  0.00  0.05  0.00
  YS02001910YS02001907    1.00   0.00  0.00  0.00  1.00  0.00  0.00  0.00  0.12  0.00
  YS02001786YS02001788    1.00   0.00  0.00  0.00  0.52  0.48  0.00  0.00  0.00  0.00
  YS02001915YS02001910    1.00   0.00  0.00  0.00  0.99  0.01  0.00  0.00  0.16  0.00
  YS02001918YS02001915    1.00   0.00  0.00  0.00  1.00  0.00  0.00  0.00  0.52  0.00
  YS02001923YS02001920    1.00   0.00  0.00  0.00  1.00  0.00  0.00  0.00  0.74  0.00
  YS02001926YS02001923    1.00   0.00  0.03  0.00  0.28  0.00  0.70  0.00  0.00  0.00
  YS02001929YS02001926    1.00   0.00  0.03  0.00  0.97  0.00  0.00  0.00  0.66  0.00
  YS02001920YS02001918    1.00   0.00  0.00  0.00  1.00  0.00  0.00  0.00  0.00  0.00
  YS02001629YS02163301    1.00   0.04  0.00  0.00  0.96  0.00  0.00  0.00  0.00  0.00
  YS02001619YS02001622    1.00   0.03  0.00  0.00  0.97  0.00  0.00  0.00  0.00  0.00
  YS02001622YS02001625    1.00   0.03  0.00  0.00  0.97  0.00  0.00  0.00  0.05  0.00
  YS02001625YS02001629    1.00   0.04  0.01  0.00  0.94  0.00  0.01  0.00  0.00  0.00
  YS02163301YS02001633    1.00   0.00  0.04  0.00  0.96  0.00  0.00  0.00  0.00  0.00
  YS02163601YS02164001    1.00   0.00  0.03  0.00  0.97  0.00  0.00  0.00  0.00  0.00
  YS02164001YS02001641    1.00   0.00  0.03  0.00  0.97  0.00  0.00  0.00  0.06  0.00
  YS02001641YS02001644    1.00   0.00  0.00  0.00  1.00  0.00  0.00  0.00  0.00  0.00
  YS02001647YS02001649    1.00   0.00  0.04  0.00  0.96  0.00  0.00  0.00  0.01  0.00
  YS02006553YS02006556    1.00   0.00  0.00  0.00  1.00  0.00  0.00  0.00  0.03  0.00
  YS02006556YS02006558    1.00   0.00  0.00  0.00  1.00  0.00  0.00  0.00  0.00  0.00
  YSB6556YSB1171          1.00   0.01  0.03  0.00  0.97  0.00  0.00  0.00  0.00  0.00
  YS02001907YS02006553    1.00   0.00  0.00  0.00  1.00  0.00  0.00  0.00  0.00  0.00
  YS02006558YS02006561    1.00   0.04  0.00  0.00  0.30  0.66  0.00  0.00  0.42  0.00
  YS02001633YS02163601    1.00   0.00  0.00  0.00  1.00  0.00  0.00  0.00  0.15  0.00
  YS02001644YS02001647    1.00   0.00  0.04  0.00  0.96  0.00  0.00  0.00  0.00  0.00
  YS02001745YS02001748    1.00   0.00  0.00  0.00  0.93  0.00  0.00  0.07  0.01  0.00
  YS02001748YS02001751    1.00   0.00  0.00  0.00  0.98  0.02  0.00  0.00  0.14  0.00
  YS02001751YS02001754    1.00   0.00  0.00  0.00  0.95  0.00  0.00  0.05  0.01  0.00
  YS02001754YS02001757    1.00   0.00  0.00  0.00  1.00  0.00  0.00  0.00  0.18  0.00
  YS02001882YS02001884    1.00   0.04  0.00  0.00  0.96  0.00  0.00  0.00  0.00  0.00
  YS02001884YS02001887    1.00   0.02  0.01  0.00  0.97  0.00  0.00  0.00  0.00  0.00
  YS02001890YS02001895    1.00   0.00  0.04  0.00  0.96  0.00  0.00  0.00  0.00  0.00
  YS02001895YS02001898    1.00   0.04  0.00  0.00  0.95  0.00  0.00  0.00  0.00  0.00
  YS02001898YS02001901    1.00   0.04  0.00  0.00  0.96  0.00  0.00  0.00  0.01  0.00
  YS02001901YS02001904    1.00   0.04  0.00  0.00  0.96  0.00  0.00  0.00  0.00  0.00
  YS02001904YS02001907    1.00   0.00  0.04  0.00  0.96  0.00  0.00  0.00  0.00  0.00
  YS02001887YS02001890    1.00   0.00  0.00  0.00  1.00  0.00  0.00  0.00  0.00  0.00
  YS02001652YS02001649    1.00   0.00  0.00  0.00  1.00  0.00  0.00  0.00  0.16  0.00
  YS02001655YS02001652    1.00   0.00  0.00  0.00  0.95  0.00  0.00  0.05  0.01  0.00
  YS02001658YS02001655    1.00   0.00  0.04  0.00  0.94  0.02  0.00  0.00  0.02  0.00
  YS02001661YS02001658    1.00   0.04  0.00  0.00  0.92  0.04  0.00  0.00  0.00  0.00
  YS02001664YS02001661    1.00   0.03  0.00  0.00  0.93  0.04  0.00  0.00  0.10  0.00
  YSB1154YSB6556          1.00   0.03  0.00  0.00  0.97  0.00  0.00  0.00  0.02  0.00
  YSB1174YSB1171          1.00   0.01  0.02  0.00  0.97  0.00  0.00  0.00  0.00  0.00
  YSB1171HS02004479       1.00   0.01  0.00  0.00  0.99  0.00  0.00  0.00  0.11  0.00
  HS02004881HS02006253    1.00   0.01  0.00  0.00  0.87  0.01  0.00  0.11  0.73  0.00
  YS02001793JiankangQianchi    1.00   0.00  0.00  0.00  0.79  0.21  0.00  0.00  0.25  0.00
  YS02001757CaochengTiaoxuchi    1.00   0.00  0.05  0.00  0.90  0.05  0.00  0.00  0.00  0.00
  WSF200WS02003060        1.00   0.00  0.06  0.00  0.62  0.32  0.00  0.00  0.11  0.00
  1                       1.00   0.00  0.00  0.00  0.00  1.00  0.00  0.00  0.36  0.00
  2                       1.00   0.49  0.00  0.00  0.00  0.51  0.00  0.00  0.09  0.00
  3                       1.00   0.14  0.00  0.00  0.00  0.86  0.00  0.00  0.10  0.00
  4                       1.00   1.00  0.00  0.00  0.00  0.00  0.00  0.00  0.00  0.00
  
  
  *************************
  Conduit Surcharge Summary
  *************************
  
  ----------------------------------------------------------------------------
                                                           Hours        Hours 
                         --------- Hours Full --------   Above Full   Capacity
  Conduit                Both Ends  Upstream  Dnstream   Normal Flow   Limited
  ----------------------------------------------------------------------------
  WS02006229WS02006228        2.91      3.06      2.91      5.22         2.91
  WS02006256WS02006235        6.32      6.33      7.42      2.67         0.01
  WS02006253WS02006251        0.11      0.11      0.16      0.01         0.01
  WS02006252WS02006251        1.28      1.28      2.39      2.10         0.01
  WS02006251WS02006249        0.01      0.12      0.01      1.50         0.01
  WS02006249WS02006248        0.01      0.01      0.01      5.34         0.01
  WS02006248WS02006247        0.01      0.01      0.23      0.01         0.01
  WS02006247WS02006245        0.27      0.32      0.27      5.74         0.26
  WS02006245WS02006243        0.33      0.33      0.67      0.02         0.01
  WS02006243WS02006242        0.76      0.76      2.44      0.01         0.01
  WS02006242WS02006240        1.29      1.29      2.78      2.20         0.01
  WS02006240WS02006239        1.50      1.50      1.60      0.10         0.01
  WS02006239WS02006238        2.61      2.61      2.73      0.13         0.07
  WS02006238WS02006235        2.56      2.56      3.07      0.01         0.01
  WS02006235WS02006234        1.42      1.42      2.43      6.34         0.04
  WS02006234WS02006232        1.71      1.71      3.14      0.01         0.01
  WS02006232WS02006231        1.20      1.20      3.14      0.01         0.01
  WS02006231WS02006230        0.79      0.79      1.33      6.34         0.01
  WS02006230WS02006229        3.69      4.96      3.69      6.44         3.68
  WS02006228WS02006109        2.98      3.43      2.98      6.08         2.98
  WS02006116WS02004401        0.54      0.54      0.55      0.47         0.47
  WS02006115WS02006116        0.35      0.35      0.36      0.23         0.23
  WS02006112WS02006115        0.31      0.31      1.57      0.01         0.01
  WS02006111WS02006112        0.01      0.01      5.48      0.01         0.01
  WS02006110WS02006113        0.01      0.01      3.27      0.01         0.01
  WS02006109WS02006110        1.45      1.45      3.44      1.45         0.01
  WS02004411WS02004412        0.01      0.01      0.01      0.52         0.01
  WS02004401WS02004402        0.55      0.55      0.59      0.01         0.01
  WS02004410WS02004411        0.01      0.01      0.01      0.45         0.01
  WS02004409WS02004410        0.01      0.01      0.01      0.26         0.01
  WS02004406WS02004407        0.01      0.01      0.72      0.01         0.01
  WS02004405WS02004406        0.72      0.78      0.72      1.50         0.72
  WS02004404WS02004405        0.78      0.84      0.78      6.25         0.78
  WS02004403WS02004404        0.60      0.60      0.84      0.01         0.01
  WS02004402WS02004403        0.59      0.59      0.60      0.53         0.53
  WS02003072WS02003073        0.01      0.01      0.01      5.94         0.01
  HS02004876HS02004881        0.01      0.01      0.01      0.49         0.01
  HS02004785HS02004788        0.01      0.01      0.01      0.35         0.01
  HS02004480HS02004478        0.01      0.01      0.01      0.79         0.01
  YS02001759YS02001757        6.09      6.09      6.12      0.01         0.01
  YS02001762YS02001759        6.09      6.09      6.09      0.01         0.01
  YS02001765YS02001762        6.08      6.08      6.09      0.01         0.01
  YS02001770YS02001767        6.07      6.07      6.07      0.45         0.82
  YS02001774YS02001770        6.07      6.07      6.08      0.01         0.01
  YS02001779YS02001774        6.04      6.04      6.08      0.01         0.01
  YS02001649YS02001757        6.08      6.08      6.12      0.01         0.01
  YS02001767YS02001765        6.07      6.07      6.08      0.01         0.01
  YS02006561YS02001783        1.64      1.64      2.13      0.01         0.01
  YS02001783YS02001784        2.12      2.13      2.18      2.02         1.91
  YS02001784YS02001785        2.10      2.18      2.10      2.74         2.09
  YS02001788YS02001790        2.08      2.08      3.01      0.01         0.01
  YS02001790YS02001791        3.01      3.01      3.08      1.49         1.48
  YS02001791YS02001793        3.08      3.08      3.31      0.01         0.01
  YS02001910YS02001907        1.94      1.94      2.26      0.01         0.01
  YS02001786YS02001788        2.08      2.10      2.08      2.40         2.08
  YS02001915YS02001910        1.74      1.74      1.94      0.01         0.01
  YS02001918YS02001915        1.52      1.52      1.74      0.01         0.01
  YS02001923YS02001920        1.34      1.34      1.56      0.01         0.01
  YS02001926YS02001923        0.01      0.01      0.01      0.01         0.01
  YS02001929YS02001926        0.01      0.01      0.01      0.01         0.01
  YS02001920YS02001918        1.52      1.52      1.56      0.01         0.01
  YS02001629YS02163301        6.06      6.06      6.07      0.01         0.01
  YS02001619YS02001622        6.02      6.02      6.02      0.01         0.01
  YS02001622YS02001625        6.02      6.02      6.05      0.01         0.01
  YS02001625YS02001629        6.02      6.02      6.05      0.01         0.01
  YS02163301YS02001633        6.07      6.07      6.08      0.01         0.01
  YS02163601YS02164001        6.08      6.08      6.09      0.01         0.01
  YS02164001YS02001641        6.08      6.08      6.08      0.01         0.02
  YS02001641YS02001644        6.08      6.08      6.08      2.21         2.01
  YS02001647YS02001649        6.05      6.05      6.08      0.01         0.01
  YS02006553YS02006556        2.11      2.11      2.31      0.01         0.01
  YS02006556YS02006558        2.18      2.18      2.36      0.01         0.01
  YSB6556YSB1171              0.01      0.01      0.14      0.01         0.01
  YS02001907YS02006553        2.75      2.75      2.95      0.01         0.01
  YS02006558YS02006561        1.80      2.08      1.80      2.63         1.80
  YS02001633YS02163601        6.08      6.08      6.09      0.01         0.01
  YS02001644YS02001647        6.05      6.05      6.08      0.01         0.01
  YS02001745YS02001748        0.01      0.01      5.99      0.01         0.01
  YS02001748YS02001751        6.00      6.00      6.02      0.01         0.01
  YS02001751YS02001754        6.02      6.02      6.05      0.01         0.01
  YS02001754YS02001757        6.05      6.05      6.12      0.01         0.01
  YS02001882YS02001884        1.76      1.76      1.79      0.01         0.01
  YS02001884YS02001887        1.84      1.84      1.87      0.01         0.01
  YS02001890YS02001895        1.73      1.73      1.96      0.01         0.01
  YS02001895YS02001898        1.71      1.71      1.73      0.01         0.01
  YS02001898YS02001901        1.74      1.74      1.83      0.01         0.01
  YS02001901YS02001904        1.81      1.81      1.83      0.01         0.01
  YS02001904YS02001907        1.81      1.81      2.33      0.01         0.01
  YS02001887YS02001890        1.90      1.90      1.92      0.20         0.01
  YS02001652YS02001649        6.06      6.06      6.08      0.01         0.01
  YS02001655YS02001652        6.02      6.02      6.05      0.01         0.01
  YS02001658YS02001655        5.99      5.99      6.02      0.01         0.01
  YS02001661YS02001658        0.32      0.32      5.99      0.01         0.01
  YS02001664YS02001661        0.01      0.01      1.66      0.01         0.01
  YS02001793JiankangQianchi        3.23      3.23      5.21      0.01         0.01
  YS02001757CaochengTiaoxuchi        5.58      5.58      6.12      0.01         0.01
  
  
  ***************
  Pumping Summary
  ***************
  
  ---------------------------------------------------------------------------------------------------------
                                                  Min       Avg       Max     Total     Power    % Time Off
                        Percent   Number of      Flow      Flow      Flow    Volume     Usage    Pump Curve
  Pump                 Utilized   Start-Ups       LPS       LPS       LPS  10^6 ltr     Kw-hr    Low   High
  ---------------------------------------------------------------------------------------------------------
  CC-Pump-1               68.63           6      0.00    147.42    200.00     2.882      3.09    0.0    6.0
  CC-Pump-2               63.82           5      0.00    142.59    200.00     2.580      3.45    0.0    5.6
  JK-Pump-1               80.85           7      0.00    192.48    300.00     3.694     33.25    0.0    0.0
  JK-Pump-2               76.59           9      0.00    167.52    300.00     2.962     27.15    0.0    0.0
  XR-Pump-1               78.71           7      0.00     74.39     95.00     1.625     10.68    0.0    0.0
  XR-Pump-2               76.58          10      0.00     66.79     95.00     1.453      7.72    0.0    0.0
  XR-Pump-3               85.10           6      0.00     70.72     95.00     1.625      9.20    0.0    0.0
  XR-Pump-4               87.23           8      0.00     67.23     95.00     1.653     10.40    0.0    0.0
  

  Analysis begun on:  Sat Dec 25 01:32:08 2021
  Analysis ended on:  Sat Dec 25 01:32:13 2021
  Total elapsed time: 00:00:05