
  EPA STORM WATER MANAGEMENT MODEL - VERSION 5.1 (Build 5.3.0.dev0)
  --------------------------------------------------------------

  WARNING 04: minimum elevation drop used for Conduit WS02004404WS02004405
  WARNING 03: negative offset ignored for Link YS02001904YS02001907
  
  *********************************************************
  NOTE: The summary statistics displayed in this report are
  based on results found at every computational time step,  
  not just on results from each reporting time step.
  *********************************************************
  
  ****************
  Analysis Options
  ****************
  Flow Units ............... LPS
  Process Models:
    Rainfall/Runoff ........ YES
    RDII ................... NO
    Snowmelt ............... NO
    Groundwater ............ NO
    Flow Routing ........... YES
    Ponding Allowed ........ NO
    Water Quality .......... NO
  Infiltration Method ...... HORTON
  Flow Routing Method ...... DYNWAVE
  Surcharge Method ......... EXTRAN
  Starting Date ............ 08/28/2015 08:00:00
  Ending Date .............. 08/28/2015 15:50:00
  Antecedent Dry Days ...... 8.0
  Report Time Step ......... 00:01:00
  Wet Time Step ............ 00:01:00
  Dry Time Step ............ 00:01:00
  Routing Time Step ........ 5.00 sec
  Variable Time Step ....... YES
  Maximum Trials ........... 8
  Number of Threads ........ 4
  Head Tolerance ........... 0.001500 m
  
  
  **************************        Volume         Depth
  Runoff Quantity Continuity     hectare-m            mm
  **************************     ---------       -------
  Total Precipitation ......         5.151        11.277
  Evaporation Loss .........         0.000         0.000
  Infiltration Loss ........         1.323         2.897
  Surface Runoff ...........         2.817         6.167
  Final Storage ............         1.011         2.215
  Continuity Error (%) .....        -0.015
  
  
  **************************        Volume        Volume
  Flow Routing Continuity        hectare-m      10^6 ltr
  **************************     ---------     ---------
  Dry Weather Inflow .......         0.616         6.165
  Wet Weather Inflow .......         2.816        28.156
  Groundwater Inflow .......         0.000         0.000
  RDII Inflow ..............         0.000         0.000
  External Inflow ..........         0.102         1.024
  External Outflow .........         2.189        21.886
  Flooding Loss ............         0.929         9.291
  Evaporation Loss .........         0.000         0.000
  Exfiltration Loss ........         0.000         0.000
  Initial Stored Volume ....         0.076         0.761
  Final Stored Volume ......         0.592         5.921
  Continuity Error (%) .....        -2.748
  
  
  *************************
  Highest Continuity Errors
  *************************
  Node HS02004842 (17.04%)
  Node JK-storage (-11.71%)
  Node YS02001884 (10.39%)
  Node YS02001774 (3.96%)
  Node YSB1171 (3.39%)
  
  
  ***************************
  Time-Step Critical Elements
  ***************************
  Link 3 (55.58%)
  Link WS02006252WS02006251 (35.16%)
  Link WS02006238WS02006235 (3.63%)
  
  
  ********************************
  Highest Flow Instability Indexes
  ********************************
  Link YS02001619YS02001622 (36)
  Link WS02006113WS02006111 (35)
  Link YS02163301YS02001633 (35)
  Link YS02163601YS02164001 (35)
  Link YS02001629YS02163301 (34)
  
  
  *************************
  Routing Time Step Summary
  *************************
  Minimum Time Step           :     0.45 sec
  Average Time Step           :     0.76 sec
  Maximum Time Step           :     5.00 sec
  Percent in Steady State     :    -0.00
  Average Iterations per Step :     4.67
  Percent Not Converging      :    24.00
  
  
  ***************************
  Subcatchment Runoff Summary
  ***************************
  
  ------------------------------------------------------------------------------------------------------------------------------
                            Total      Total      Total      Total     Imperv       Perv      Total       Total     Peak  Runoff
                           Precip      Runon       Evap      Infil     Runoff     Runoff     Runoff      Runoff   Runoff   Coeff
  Subcatchment                 mm         mm         mm         mm         mm         mm         mm    10^6 ltr      LPS
  ------------------------------------------------------------------------------------------------------------------------------
  sub0                      11.28       0.00       0.00       0.79       9.22       0.00       9.22        0.01     1.44   0.818
  sub1                      11.28       0.00       0.00       1.24       8.78       0.00       8.78        0.06    10.11   0.778
  sub2                      11.28       0.00       0.00       4.17       6.20       0.00       6.20        0.06     9.79   0.549
  sub3                      11.28       0.00       0.00       4.17       6.16       0.00       6.16        0.14    22.44   0.546
  sub4                      11.28       0.00       0.00       1.24       8.63       0.00       8.63        0.18    27.35   0.765
  sub5                      11.28       0.00       0.00       0.79       9.17       0.00       9.17        0.10    18.00   0.813
  sub7                      11.28       0.00       0.00       1.01       9.01       0.00       9.01        0.03     5.34   0.799
  sub8                      11.28       0.00       0.00       1.01       9.00       0.00       9.00        0.06    10.08   0.798
  sub9                      11.28       0.00       0.00       1.01       8.99       0.00       8.99        0.04     7.58   0.798
  sub10                     11.28       0.00       0.00       0.90       9.08       0.00       9.08        0.10    17.43   0.805
  sub11                     11.28       0.00       0.00       0.90       9.10       0.00       9.10        0.11    18.56   0.807
  sub12                     11.28       0.00       0.00       1.47       8.62       0.00       8.62        0.08    13.79   0.765
  sub14                     11.28       0.00       0.00       1.01       8.99       0.00       8.99        0.09    14.98   0.797
  sub15                     11.28       0.00       0.00       3.38       6.91       0.00       6.91        0.12    20.76   0.613
  sub16                     11.28       0.00       0.00       3.72       6.64       0.00       6.64        0.07    12.34   0.589
  sub17                     11.28       0.00       0.00       3.61       6.73       0.00       6.73        0.06    10.18   0.597
  sub22                     11.28       0.00       0.00       4.85       5.64       0.00       5.64        0.36    62.58   0.500
  sub23                     11.28       0.00       0.00       4.17       6.23       0.00       6.23        0.30    52.29   0.553
  sub60                     11.28       0.00       0.00       1.35       7.08       0.00       7.08        2.14   214.31   0.627
  sub61                     11.28       0.00       0.00       1.92       7.22       0.00       7.22        2.23   246.69   0.640
  sub62                     11.28       0.00       0.00       0.90       7.84       0.00       7.84        2.41   259.66   0.695
  sub63                     11.28       0.00       0.00       3.27       6.33       0.00       6.33        1.92   219.77   0.561
  sub64                     11.28       0.00       0.00       1.69       6.79       0.00       6.79        2.06   204.52   0.602
  sub65                     11.28       0.00       0.00       1.47       6.90       0.00       6.90        2.12   208.50   0.612
  sub66                     11.28       0.00       0.00       3.27       5.83       0.00       5.83        1.79   183.42   0.517
  sub67                     11.28       0.00       0.00       0.90       8.30       0.00       8.30        2.56   301.39   0.736
  sub68                     11.28       0.00       0.00       1.58       7.60       0.00       7.60        2.34   264.96   0.674
  sub69                     11.28       0.00       0.00       1.69       7.90       0.00       7.90        1.85   237.25   0.701
  sub70                     11.28       8.07       0.00       6.54      10.49       0.03      10.52        2.41   252.63   0.544
  sub71                     11.28       0.00       0.00       0.90       7.63       0.00       7.63        1.80   186.96   0.676
  sub72                     11.28       0.00       0.00       0.79       6.02       0.00       6.02        1.23   100.40   0.534
  sub73                     11.28      10.24       0.00       7.30      11.40       0.02      11.42        2.68   238.40   0.531
  sub74                     11.28       0.00       0.00       8.46       2.36       0.00       2.36        0.94   126.51   0.209
  
  
  ******************
  Node Depth Summary
  ******************
  
  ---------------------------------------------------------------------------------
                                 Average  Maximum  Maximum  Time of Max    Reported
                                   Depth    Depth      HGL   Occurrence   Max Depth
  Node                 Type       Meters   Meters   Meters  days hr:min      Meters
  ---------------------------------------------------------------------------------
  WS02001211           JUNCTION     0.68     0.78     5.62     0  02:22        0.78
  WS02001212           JUNCTION     0.40     0.50     5.57     0  02:22        0.50
  WS02001213           JUNCTION     0.65     0.76     5.52     0  02:22        0.76
  WS02003069           JUNCTION     0.47     0.59     5.18     0  02:23        0.59
  WS02003072           JUNCTION     0.53     0.65     5.02     0  02:24        0.65
  WS02003073           JUNCTION     0.32     0.40     4.47     0  02:25        0.40
  WS02003060           JUNCTION     0.42     0.52     5.46     0  02:23        0.52
  WS02003066           JUNCTION     0.25     0.31     5.87     0  02:11        0.31
  WS02003059           JUNCTION     0.70     0.81     5.50     0  02:22        0.81
  WS02003067           JUNCTION     0.60     0.72     6.04     0  02:11        0.72
  WS02004401           JUNCTION     0.71     0.90     6.90     0  02:07        0.90
  WS02004402           JUNCTION     0.74     0.93     6.89     0  02:07        0.93
  WS02004403           JUNCTION     0.76     0.94     6.87     0  02:07        0.94
  WS02004404           JUNCTION     0.84     1.01     6.86     0  02:10        1.01
  WS02004406           JUNCTION     0.84     0.99     6.82     0  02:08        0.99
  WS02004409           JUNCTION     0.53     0.71     6.48     0  02:10        0.71
  WS02004410           JUNCTION     0.55     0.72     6.44     0  02:11        0.72
  WS02004411           JUNCTION     0.56     0.73     6.41     0  02:10        0.73
  WS02004412           JUNCTION     0.58     0.73     6.37     0  02:10        0.73
  WS02004413           JUNCTION     0.73     0.89     6.36     0  02:11        0.89
  WS02004405           JUNCTION     0.83     1.00     6.85     0  02:08        1.00
  WS02006109           JUNCTION     0.80     1.04     7.66     0  02:07        1.02
  WS02006110           JUNCTION     0.79     0.96     7.55     0  02:07        0.96
  WS02006111           JUNCTION     0.24     0.30     7.01     0  02:07        0.30
  WS02006112           JUNCTION     0.89     1.20     7.09     0  02:14        1.15
  WS02006113           JUNCTION     0.37     0.48     7.37     0  02:08        0.48
  WS02006115           JUNCTION     0.61     0.81     6.95     0  02:09        0.81
  WS02006116           JUNCTION     0.69     0.89     6.93     0  02:07        0.89
  WS02006230           JUNCTION     0.79     1.08     7.82     0  02:06        1.08
  WS02006231           JUNCTION     0.53     0.74     7.87     0  02:06        0.74
  WS02006232           JUNCTION     0.67     0.87     7.91     0  02:40        0.87
  WS02006234           JUNCTION     0.59     0.82     7.98     0  02:40        0.80
  WS02006235           JUNCTION     0.62     0.84     8.01     0  02:41        0.84
  WS02006238           JUNCTION     0.65     0.87     8.01     0  02:41        0.87
  WS02006240           JUNCTION     0.55     0.79     8.09     0  02:40        0.78
  WS02006242           JUNCTION     0.61     0.86     8.13     0  02:40        0.84
  WS02006243           JUNCTION     0.49     0.74     8.16     0  02:40        0.72
  WS02006245           JUNCTION     0.46     0.70     8.19     0  02:40        0.70
  WS02006247           JUNCTION     0.48     0.71     8.21     0  02:40        0.70
  WS02006248           JUNCTION     0.42     0.63     8.22     0  02:41        0.63
  WS02006249           JUNCTION     0.45     0.64     8.23     0  02:42        0.64
  WS02006239           JUNCTION     0.61     0.85     8.06     0  02:40        0.84
  WS02006251           JUNCTION     0.44     0.68     8.35     0  02:10        0.68
  WS02006252           JUNCTION     0.39     0.59     8.84     0  04:22        0.59
  WS02006253           JUNCTION     0.47     0.71     8.35     0  02:10        0.70
  WS02006256           JUNCTION     1.08     1.21     8.15     0  02:00        1.21
  WS02004138           JUNCTION     0.16     0.20     7.45     0  00:00        0.19
  WS02004407           JUNCTION     0.24     0.31     6.63     0  02:08        0.31
  WS02006228           JUNCTION     0.81     1.08     7.74     0  02:07        1.08
  WS02006229           JUNCTION     0.79     1.08     7.78     0  02:06        1.08
  WS02006280           JUNCTION     0.07     0.16     8.44     0  02:09        0.16
  WS02006284           JUNCTION     0.37     0.51     8.91     0  02:09        0.51
  WS02006287           JUNCTION     0.10     0.24     9.20     0  02:09        0.24
  WSF200               JUNCTION     0.24     0.33     5.56     0  02:17        0.33
  HS02004901           JUNCTION     0.13     0.25    10.07     0  02:07        0.25
  HS02004881           JUNCTION     0.01     0.03     9.06     0  02:08        0.03
  HS02004876           JUNCTION     0.05     0.11     9.14     0  02:05        0.11
  HS02004870           JUNCTION     0.02     0.05     9.34     0  02:09        0.05
  HS02004862           JUNCTION     0.02     0.06     9.44     0  02:09        0.06
  HS02004856           JUNCTION     0.08     0.11     9.54     0  02:09        0.11
  HS02004852           JUNCTION     0.01     0.04     9.55     0  02:09        0.04
  HS02004848           JUNCTION     0.01     0.04     9.64     0  02:09        0.04
  HS02004842           JUNCTION     0.33     0.37     9.64     0  02:09        0.37
  HS02004837           JUNCTION     0.03     0.06     9.64     0  02:09        0.06
  HS02004830           JUNCTION     0.04     0.07     9.54     0  02:09        0.07
  HS02004824           JUNCTION     0.02     0.05     9.45     0  02:10        0.05
  HS02004817           JUNCTION     0.44     0.56     9.40     0  02:09        0.56
  HS02004807           JUNCTION     0.13     0.23     9.40     0  02:09        0.23
  HS02004802           JUNCTION     0.17     0.26     9.39     0  02:09        0.26
  HS02004799           JUNCTION     0.13     0.28     9.49     0  02:07        0.28
  HS02004792           JUNCTION     0.04     0.11     9.63     0  02:07        0.11
  HS02004788           JUNCTION     0.03     0.08     9.98     0  02:08        0.08
  HS02004785           JUNCTION     0.05     0.15    10.05     0  02:08        0.15
  HS02004777           JUNCTION     0.15     0.27    10.06     0  02:07        0.27
  HS02004770           JUNCTION     0.12     0.24    10.07     0  02:07        0.24
  HS02004480           JUNCTION     0.09     0.22     9.46     0  02:07        0.22
  HS02004479           JUNCTION     0.12     0.26     9.46     0  02:08        0.26
  HS02004478           JUNCTION     0.06     0.15     9.38     0  02:08        0.15
  YS02001745           JUNCTION     0.68     0.88     8.39     0  03:25        0.87
  YS02001748           JUNCTION     1.08     1.77     8.85     0  02:26        1.31
  YS02001751           JUNCTION     1.27     2.01     8.89     0  02:17        1.52
  YS02001754           JUNCTION     1.53     1.98     8.58     0  02:17        1.80
  YS02001762           JUNCTION     1.73     2.03     8.43     0  03:30        2.02
  YS02001765           JUNCTION     1.68     1.98     8.43     0  03:30        1.97
  YS02001767           JUNCTION     1.64     1.93     8.42     0  03:23        1.92
  YS02001770           JUNCTION     1.64     1.91     8.40     0  03:26        1.90
  YS02001774           JUNCTION     1.71     1.97     8.39     0  03:34        1.96
  YS02001779           JUNCTION     1.46     1.68     8.37     0  02:28        1.68
  YS02001882           JUNCTION     0.47     1.18     7.90     0  02:58        1.18
  YS02001884           JUNCTION     0.56     1.28     7.90     0  02:58        1.28
  YS02001759           JUNCTION     1.76     2.07     8.43     0  03:28        2.05
  YS02001887           JUNCTION     0.64     1.37     7.91     0  02:58        1.36
  YS02001890           JUNCTION     0.67     1.40     7.90     0  02:58        1.39
  YS02001898           JUNCTION     0.44     1.15     7.89     0  02:58        1.15
  YS02001901           JUNCTION     0.56     1.28     7.89     0  02:58        1.27
  YS02001904           JUNCTION     0.54     1.25     7.88     0  02:58        1.24
  YS02001907           JUNCTION     0.87     1.59     7.88     0  02:58        1.58
  YS02001910           JUNCTION     0.66     1.38     7.88     0  02:56        1.37
  YS02001915           JUNCTION     0.45     1.16     7.88     0  02:58        1.16
  YS02001918           JUNCTION     0.21     0.82     7.88     0  02:58        0.81
  YS02001619           JUNCTION     1.24     1.61     8.54     0  02:23        1.46
  YS02001629           JUNCTION     1.60     1.85     8.40     0  02:23        1.84
  YS02001641           JUNCTION     1.70     2.01     8.44     0  02:26        1.93
  YS02001644           JUNCTION     1.70     1.92     8.35     0  02:26        1.92
  YS02001652           JUNCTION     1.54     2.16     8.76     0  02:43        1.86
  YS02001655           JUNCTION     1.30     2.20     9.05     0  02:13        1.68
  YS02001920           JUNCTION     0.30     0.88     7.89     0  02:58        0.88
  YS02001923           JUNCTION     0.15     0.62     7.88     0  02:57        0.62
  YS02001926           JUNCTION     0.21     0.44     7.88     0  02:57        0.44
  YS02001929           JUNCTION     0.10     0.17     7.87     0  02:58        0.17
  YS02001658           JUNCTION     1.03     2.30     9.44     0  02:26        1.49
  YS02001661           JUNCTION     0.79     2.46     9.86     0  02:45        1.42
  YS02001664           JUNCTION     0.34     0.57     8.50     0  02:40        0.56
  YS02001622           JUNCTION     1.26     1.58     8.48     0  02:24        1.49
  YS02001633           JUNCTION     1.69     2.01     8.47     0  02:27        1.93
  YS02001649           JUNCTION     1.74     2.05     8.44     0  02:26        2.05
  YS02001757           JUNCTION     1.86     2.17     8.44     0  03:27        2.15
  YS02001895           JUNCTION     0.43     1.14     7.89     0  02:58        1.14
  YS02001625           JUNCTION     1.55     1.78     8.38     0  02:23        1.78
  YS02163301           JUNCTION     1.63     1.94     8.45     0  02:26        1.87
  YS02163601           JUNCTION     1.74     2.08     8.48     0  02:26        1.98
  YS02164001           JUNCTION     1.68     2.03     8.49     0  02:26        1.91
  YS02001647           JUNCTION     1.53     1.84     8.45     0  02:28        1.79
  YSB1154              JUNCTION     0.26     0.41     9.47     0  02:08        0.41
  YSB6556              JUNCTION     0.16     0.30     9.47     0  02:07        0.30
  YSB1174              JUNCTION     0.21     0.36     9.47     0  02:08        0.36
  YSB1171              JUNCTION     0.41     0.56     9.47     0  02:08        0.56
  YS02006553           JUNCTION     0.87     1.59     7.87     0  02:58        1.57
  YS02006561           JUNCTION     0.26     0.80     7.46     0  02:58        0.80
  YS02006556           JUNCTION     0.84     1.54     7.85     0  02:57        1.53
  YS02006558           JUNCTION     0.88     1.57     7.84     0  02:56        1.56
  YS02001783           JUNCTION     0.49     1.87     8.01     0  02:16        1.22
  YS02001784           JUNCTION     0.51     1.86     7.93     0  02:16        1.20
  YS02001786           JUNCTION     0.46     2.23     8.26     0  02:16        1.09
  YS02001788           JUNCTION     0.40     1.85     7.83     0  02:16        1.00
  YS02001790           JUNCTION     0.52     1.96     7.60     0  02:15        1.21
  YS02001791           JUNCTION     0.50     2.57     8.04     0  02:14        1.24
  YS02001793           JUNCTION     0.69     3.60     8.43     0  02:13        1.79
  WS02004139           JUNCTION     0.62     0.73     5.64     0  02:22        0.73
  WSC                  OUTFALL      0.32     0.40     1.07     0  02:25        0.40
  3                    OUTFALL      0.11     0.21     6.21     0  02:00        0.21
  4                    OUTFALL      0.03     0.14     7.14     0  02:43        0.14
  5                    OUTFALL      0.00     0.00     5.00     0  00:00        0.00
  JK-storage           STORAGE      2.43     5.80     6.60     0  02:15        5.80
  CC-storage           STORAGE      1.08     1.39     8.39     0  03:23        1.39
  XR-storage           STORAGE      6.91     7.72     5.72     0  02:31        7.72
  
  
  *******************
  Node Inflow Summary
  *******************
  
  -------------------------------------------------------------------------------------------------
                                  Maximum  Maximum                  Lateral       Total        Flow
                                  Lateral    Total  Time of Max      Inflow      Inflow     Balance
                                   Inflow   Inflow   Occurrence      Volume      Volume       Error
  Node                 Type           LPS      LPS  days hr:min    10^6 ltr    10^6 ltr     Percent
  -------------------------------------------------------------------------------------------------
  WS02001211           JUNCTION      7.35   388.14     0  07:08       0.207         7.4       0.549
  WS02001212           JUNCTION      0.00   388.68     0  07:08           0        7.36       0.317
  WS02001213           JUNCTION      0.00   389.20     0  07:08           0        7.34       0.411
  WS02003069           JUNCTION      0.32   971.92     0  02:23     0.00902        16.5       0.225
  WS02003072           JUNCTION      0.00   971.69     0  02:24           0        16.4       0.267
  WS02003073           JUNCTION      1.82   973.86     0  02:24      0.0514        16.4       0.309
  WS02003060           JUNCTION     16.53   971.23     0  02:22       0.466        16.5       0.212
  WS02003066           JUNCTION      0.00   598.13     0  02:11           0        8.76       0.056
  WS02003059           JUNCTION      0.00   390.13     0  07:07           0        7.31       0.565
  WS02003067           JUNCTION      0.00   598.07     0  02:11           0        8.77       0.115
  WS02004401           JUNCTION      0.00   600.72     0  02:07           0        9.02       0.254
  WS02004402           JUNCTION      0.00   600.10     0  02:07           0           9       0.238
  WS02004403           JUNCTION      0.00   599.30     0  02:07           0        8.98       0.215
  WS02004404           JUNCTION      0.16   599.60     0  02:08     0.00457        8.96       0.161
  WS02004406           JUNCTION      0.00   599.54     0  02:08           0        8.93       0.391
  WS02004409           JUNCTION      0.00   598.85     0  02:08           0        8.88       0.208
  WS02004410           JUNCTION      0.00   598.41     0  02:08           0        8.87       0.233
  WS02004411           JUNCTION      0.00   598.33     0  02:10           0        8.85       0.237
  WS02004412           JUNCTION      0.00   598.08     0  02:10           0        8.82       0.253
  WS02004413           JUNCTION      0.00   598.26     0  02:11           0         8.8       0.369
  WS02004405           JUNCTION      0.04   599.67     0  02:08     0.00107        8.95       0.240
  WS02006109           JUNCTION      1.23   589.64     0  02:06      0.0347        9.09       0.218
  WS02006110           JUNCTION      0.00   589.53     0  02:06           0        9.07       0.238
  WS02006111           JUNCTION      0.00   616.98     0  02:06           0        9.04       0.053
  WS02006112           JUNCTION     10.18   606.85     0  02:08      0.0577        9.09       0.338
  WS02006113           JUNCTION      0.00   591.21     0  02:07           0        9.05       0.114
  WS02006115           JUNCTION      0.00   615.58     0  02:07           0        9.06       0.242
  WS02006116           JUNCTION      0.00   600.89     0  02:07           0        9.04       0.228
  WS02006230           JUNCTION     10.28   401.97     0  04:30        0.29        7.35       0.177
  WS02006231           JUNCTION      0.00   392.04     0  04:30           0        7.07       0.164
  WS02006232           JUNCTION      0.00   392.06     0  04:30           0        7.09       0.236
  WS02006234           JUNCTION      0.00   392.19     0  04:30           0        7.09       0.122
  WS02006235           JUNCTION      0.00   392.18     0  04:30           0        7.14       0.160
  WS02006238           JUNCTION      0.00   343.48     0  04:20           0        5.02       0.160
  WS02006240           JUNCTION      0.00   339.52     0  04:20           0        5.01       0.254
  WS02006242           JUNCTION      0.00   336.05     0  04:20           0        5.01       0.302
  WS02006243           JUNCTION      0.00   335.93     0  04:01           0        5.01       0.015
  WS02006245           JUNCTION      0.00   341.41     0  06:31           0        5.02       0.217
  WS02006247           JUNCTION      0.00   347.80     0  06:31           0        5.02       0.141
  WS02006248           JUNCTION      0.00   353.63     0  06:30           0        5.03       0.078
  WS02006249           JUNCTION      0.00   453.76     0  02:10           0        5.78       0.188
  WS02006239           JUNCTION      0.00   342.43     0  04:20           0        5.01       0.241
  WS02006251           JUNCTION      0.08   453.61     0  02:10     0.00217        5.81       0.153
  WS02006252           JUNCTION      0.00   400.00     0  02:40           0        5.46       0.008
  WS02006253           JUNCTION      1.44    57.92     0  02:08     0.00747       0.355       1.114
  WS02006256           JUNCTION      0.00   600.00     0  02:30           0        6.91       0.043
  WS02004138           JUNCTION      0.00   380.00     0  00:00           0        7.24       0.092
  WS02004407           JUNCTION      0.00   599.22     0  02:08           0        8.89       0.092
  WS02006228           JUNCTION      0.00   588.42     0  02:06           0        9.07       0.159
  WS02006229           JUNCTION      0.00   587.72     0  02:06           0        9.09       0.139
  WS02006280           JUNCTION      0.00   274.19     0  02:09           0        1.75       0.004
  WS02006284           JUNCTION      0.10   274.19     0  02:09      0.0027        1.75       0.059
  WS02006287           JUNCTION      0.00   274.08     0  02:09           0        1.75       0.041
  WSF200               JUNCTION      0.00   598.15     0  02:11           0        8.76       0.053
  HS02004901           JUNCTION     12.34    12.34     0  01:36      0.0695      0.0697       2.590
  HS02004881           JUNCTION      5.34    56.62     0  02:08      0.0303       0.326       0.090
  HS02004876           JUNCTION     10.11    51.23     0  02:08      0.0584       0.296       0.183
  HS02004870           JUNCTION     10.08    41.18     0  02:08      0.0575       0.238       0.045
  HS02004862           JUNCTION      9.99    31.21     0  02:08      0.0634        0.18       0.095
  HS02004856           JUNCTION      7.58    21.25     0  02:08      0.0432       0.118       1.230
  HS02004852           JUNCTION      0.00    13.78     0  02:09           0      0.0753       0.072
  HS02004848           JUNCTION     22.44    22.44     0  02:09       0.139       0.139       0.033
  HS02004842           JUNCTION      0.00     8.71     0  02:17           0      0.0763      20.535
  HS02004837           JUNCTION     23.78    32.32     0  02:08       0.279       0.343       0.237
  HS02004830           JUNCTION      0.15    32.46     0  02:09     0.00423       0.333       0.372
  HS02004824           JUNCTION     27.40    59.85     0  02:10       0.181       0.513       0.105
  HS02004817           JUNCTION      0.60    60.44     0  02:10      0.0169       0.529       3.252
  HS02004807           JUNCTION     18.56    78.63     0  02:09       0.106       0.618       0.705
  HS02004802           JUNCTION      0.00    78.69     0  02:10           0       0.615       0.645
  HS02004799           JUNCTION     14.98   164.66     0  02:07      0.0856       0.976       0.271
  HS02004792           JUNCTION     62.86   149.73     0  02:07       0.364       0.891       0.045
  HS02004788           JUNCTION     22.43    86.95     0  02:07       0.166       0.528       0.073
  HS02004785           JUNCTION      0.15    64.59     0  02:07     0.00423       0.363       0.135
  HS02004777           JUNCTION      0.03    64.48     0  02:07    0.000846       0.364       1.448
  HS02004770           JUNCTION     52.29    64.50     0  02:06       0.297       0.365       0.854
  HS02004480           JUNCTION      0.00   195.78     0  02:07           0        1.15       0.098
  HS02004479           JUNCTION      0.00    31.20     0  02:09           0       0.188       0.391
  HS02004478           JUNCTION      0.00   274.07     0  02:08           0        1.75       0.020
  YS02001745           JUNCTION    214.32   382.79     0  02:26        2.14        2.16       0.438
  YS02001748           JUNCTION      0.04   543.23     0  02:26     0.00127        2.16       1.030
  YS02001751           JUNCTION      0.01   325.50     0  02:19     0.00031        2.11       1.119
  YS02001754           JUNCTION      0.26   272.01     0  02:26     0.00733         2.1       1.179
  YS02001762           JUNCTION      0.00   258.82     0  02:46           0        1.94       1.089
  YS02001765           JUNCTION      0.00   258.58     0  02:46           0        1.94       1.255
  YS02001767           JUNCTION      0.54   258.26     0  02:46      0.0151        1.97       1.850
  YS02001770           JUNCTION    259.81   283.39     0  03:29        2.41        2.51       1.279
  YS02001774           JUNCTION      0.00   284.14     0  03:29           0       0.631       4.126
  YS02001779           JUNCTION      0.01   284.41     0  03:29    0.000141         0.6       2.627
  YS02001882           JUNCTION      0.00    21.68     0  02:18           0      0.0184      12.691
  YS02001884           JUNCTION      0.00    43.58     0  02:18           0      0.0556      11.600
  YS02001759           JUNCTION    246.73   503.48     0  02:46        2.23        4.04       0.565
  YS02001887           JUNCTION    301.84   316.07     0  02:19        2.57         2.6       0.311
  YS02001890           JUNCTION      0.00   303.13     0  02:40           0        2.56       0.346
  YS02001898           JUNCTION      0.00   303.03     0  02:43           0        2.54       0.108
  YS02001901           JUNCTION      0.00   302.64     0  02:51           0        2.54       0.260
  YS02001904           JUNCTION      0.00   302.73     0  02:51           0        2.54       0.239
  YS02001907           JUNCTION      0.00   588.68     0  03:04           0        5.63       0.418
  YS02001910           JUNCTION      0.00   322.51     0  03:06           0         3.1       0.364
  YS02001915           JUNCTION    186.98   321.66     0  03:06         1.8         3.1       0.181
  YS02001918           JUNCTION      0.00   149.92     0  03:07           0         1.3       0.135
  YS02001619           JUNCTION    183.42   183.42     0  02:55        1.79        1.79       0.686
  YS02001629           JUNCTION      0.00   180.61     0  02:17           0        1.66       1.739
  YS02001641           JUNCTION      0.00   375.03     0  02:39           0        3.69       0.573
  YS02001644           JUNCTION    204.56   905.60     0  03:24        2.06        7.06       0.369
  YS02001652           JUNCTION      0.00   304.07     0  02:09           0        1.87       1.232
  YS02001655           JUNCTION      0.15   385.56     0  02:14     0.00434         1.9       1.332
  YS02001920           JUNCTION      2.87   139.69     0  03:04      0.0809        1.31       0.213
  YS02001923           JUNCTION      0.04   111.95     0  03:02     0.00106        1.23       0.049
  YS02001926           JUNCTION      0.05   104.07     0  03:02     0.00147        1.23       0.255
  YS02001929           JUNCTION    100.40   100.40     0  03:01        1.23        1.23       0.039
  YS02001658           JUNCTION      0.00   517.38     0  02:26           0        1.92       1.129
  YS02001661           JUNCTION      0.00   622.66     0  02:41           0        2.71      -0.225
  YS02001664           JUNCTION    219.77   375.54     0  02:40        1.91        2.71       0.189
  YS02001622           JUNCTION      0.00   183.69     0  02:54           0        1.78       1.815
  YS02001633           JUNCTION    208.70   373.62     0  02:39        2.13        3.75       0.858
  YS02001649           JUNCTION      0.00   800.26     0  02:27           0        4.96       0.749
  YS02001757           JUNCTION      0.00  1462.92     0  02:38           0         9.6       0.971
  YS02001895           JUNCTION      0.00   303.63     0  02:37           0        2.55       0.188
  YS02001625           JUNCTION      0.00   183.52     0  02:54           0        1.74       2.288
  YS02163301           JUNCTION      0.00   191.25     0  02:23           0        1.65       1.468
  YS02163601           JUNCTION      0.11   373.97     0  02:39      0.0031        3.71       0.814
  YS02164001           JUNCTION      0.00   374.30     0  02:39           0        3.69       0.546
  YS02001647           JUNCTION      0.00   568.77     0  02:39           0        3.76       0.756
  YSB1154              JUNCTION     18.00    18.00     0  02:07       0.104       0.105       1.400
  YSB6556              JUNCTION      0.00    17.99     0  02:06           0       0.105       1.199
  YSB1174              JUNCTION     13.79    13.79     0  01:35      0.0753      0.0758       1.722
  YSB1171              JUNCTION      0.00    31.24     0  02:07           0       0.187       3.509
  YS02006553           JUNCTION      0.00   588.72     0  03:04           0        5.62       0.266
  YS02006561           JUNCTION      0.00   842.92     0  02:58           0        7.92       0.008
  YS02006556           JUNCTION      0.00   588.72     0  03:03           0        5.62       0.196
  YS02006558           JUNCTION    265.84   843.22     0  02:57        2.36        7.95       0.065
  YS02001783           JUNCTION      0.00   841.49     0  02:58           0        7.92       0.026
  YS02001784           JUNCTION      1.06   842.57     0  02:57      0.0299        7.95       0.043
  YS02001786           JUNCTION      0.06   842.72     0  02:58     0.00159        7.95       0.039
  YS02001788           JUNCTION      0.07   842.62     0  02:58       0.002        7.94       0.025
  YS02001790           JUNCTION      0.15   842.85     0  02:57     0.00437        7.95       0.028
  YS02001791           JUNCTION      0.00   842.93     0  02:58           0        7.95       0.015
  YS02001793           JUNCTION      0.00   842.79     0  02:57           0        7.94       0.001
  WS02004139           JUNCTION      0.32   394.45     0  00:00     0.00905        7.24       0.634
  WSC                  OUTFALL       0.00   974.14     0  02:25           0        16.4       0.000
  3                    OUTFALL       0.00   517.18     0  02:00           0        4.76       0.000
  4                    OUTFALL       0.00   175.51     0  02:43           0       0.745       0.000
  5                    OUTFALL       0.00     0.00     0  00:00           0           0       0.000 ltr
  JK-storage           STORAGE       0.00   946.68     0  02:13           0         8.1     -10.480
  CC-storage           STORAGE       0.00  1462.96     0  02:38           0        8.79       0.677
  XR-storage           STORAGE     549.18   549.18     0  02:55        9.26        9.86      -0.001
  
  
  **********************
  Node Surcharge Summary
  **********************
  
  Surcharging occurs when water rises above the top of the highest conduit.
  ---------------------------------------------------------------------
                                               Max. Height   Min. Depth
                                   Hours       Above Crown    Below Rim
  Node                 Type      Surcharged         Meters       Meters
  ---------------------------------------------------------------------
  WS02004404           JUNCTION        0.24          0.006        2.774
  WS02006109           JUNCTION        2.90          0.217        1.603
  WS02006110           JUNCTION        1.06          0.053        1.797
  WS02006112           JUNCTION        1.33          0.204        1.476
  WS02006230           JUNCTION        0.01          0.000        1.570
  WS02006231           JUNCTION        0.51          0.035        1.495
  WS02006232           JUNCTION        3.01          0.174        1.306
  WS02006234           JUNCTION        0.99          0.100        1.140
  WS02006235           JUNCTION        2.07          0.132        1.158
  WS02006238           JUNCTION        2.51          0.150        1.280
  WS02006240           JUNCTION        0.83          0.082        1.308
  WS02006242           JUNCTION        2.01          0.129        0.691
  WS02006243           JUNCTION        0.14          0.035        0.735
  WS02006239           JUNCTION        1.22          0.112        1.178
  WS02006252           JUNCTION        2.76          0.193        0.907
  WS02006228           JUNCTION        2.74          0.255        1.945
  YS02001748           JUNCTION        5.18          0.689        0.501
  YS02001751           JUNCTION        5.48          1.008        0.192
  YS02001754           JUNCTION        5.73          0.927        0.223
  YS02001762           JUNCTION        5.96          1.030        0.120
  YS02001765           JUNCTION        5.94          0.976        0.124
  YS02001767           JUNCTION        5.92          0.930        0.100
  YS02001770           JUNCTION        5.91          0.878        0.042
  YS02001774           JUNCTION        5.95          0.972        0.078
  YS02001779           JUNCTION        5.71          0.680        0.000
  YS02001882           JUNCTION        0.48          0.184        0.646
  YS02001884           JUNCTION        0.56          0.223        0.647
  YS02001759           JUNCTION        5.98          1.068        0.142
  YS02001887           JUNCTION        0.71          0.318        0.632
  YS02001890           JUNCTION        0.76          0.349        0.411
  YS02001898           JUNCTION        0.37          0.121        0.619
  YS02001901           JUNCTION        0.65          0.281        0.589
  YS02001904           JUNCTION        0.61          0.247        0.603
  YS02001907           JUNCTION        1.44          0.582        0.368
  YS02001910           JUNCTION        0.82          0.375        0.725
  YS02001915           JUNCTION        0.45          0.164        0.836
  YS02001619           JUNCTION        5.51          0.610        0.000
  YS02001629           JUNCTION        5.52          0.470        0.000
  YS02001641           JUNCTION        5.94          1.006        0.094
  YS02001644           JUNCTION        5.95          0.920        0.000
  YS02001652           JUNCTION        5.75          1.130        0.000
  YS02001655           JUNCTION        5.56          1.200        0.000
  YS02001658           JUNCTION        5.25          1.300        0.000
  YS02001661           JUNCTION        0.22          1.390        0.000
  YS02001622           JUNCTION        5.57          0.577        0.043
  YS02001633           JUNCTION        5.93          0.994        0.066
  YS02001649           JUNCTION        5.96          1.050        0.000
  YS02001757           JUNCTION        6.04          1.174        0.036
  YS02001895           JUNCTION        0.41          0.144        0.606
  YS02001625           JUNCTION        5.80          0.780        0.000
  YS02163301           JUNCTION        5.92          0.937        0.093
  YS02163601           JUNCTION        5.97          1.080        0.000
  YS02164001           JUNCTION        5.94          1.031        0.069
  YS02001647           JUNCTION        5.76          0.835        0.065
  YS02006553           JUNCTION        1.52          0.585        0.605
  YS02006561           JUNCTION        0.01          0.002        1.148
  YS02006556           JUNCTION        1.12          0.495        0.855
  YS02006558           JUNCTION        1.08          0.470        0.930
  YS02001783           JUNCTION        1.21          1.073        0.527
  YS02001784           JUNCTION        1.29          1.057        0.433
  YS02001786           JUNCTION        1.22          1.430        0.000
  YS02001788           JUNCTION        1.21          1.048        0.432
  YS02001790           JUNCTION        2.10          1.157        0.000
  YS02001791           JUNCTION        2.18          1.766        0.154
  YS02001793           JUNCTION        2.32          2.600        0.000
  
  
  *********************
  Node Flooding Summary
  *********************
  
  Flooding refers to all water that overflows a node, whether it ponds or not.
  --------------------------------------------------------------------------
                                                             Total   Maximum
                                 Maximum   Time of Max       Flood    Ponded
                        Hours       Rate    Occurrence      Volume     Depth
  Node                 Flooded       LPS   days hr:min    10^6 ltr    Meters
  --------------------------------------------------------------------------
  YS02001779              2.15    284.19      0  03:29       0.579     0.000
  YS02001619              0.01     14.59      0  02:23       0.000     0.000
  YS02001629              0.01     31.47      0  02:25       0.000     0.000
  YS02001644              3.88    905.31      0  03:24       4.598     0.000
  YS02001652              0.01     20.51      0  02:45       0.000     0.000
  YS02001655              0.01    163.18      0  02:14       0.000     0.000
  YS02001658              0.01    172.12      0  02:27       0.000     0.000
  YS02001661              0.01    179.13      0  02:45       0.000     0.000
  YS02001649              0.07     46.94      0  02:45       0.004     0.000
  YS02001625              0.55     35.90      0  02:56       0.044     0.000
  YS02163601              0.01      4.17      0  02:26       0.000     0.000
  YS02001786              0.01    104.74      0  02:16       0.000     0.000
  YS02001790              0.01    173.83      0  02:15       0.000     0.000
  YS02001793              0.01    318.87      0  02:13       0.000     0.000
  JK-storage              1.78    542.80      0  02:59       2.129     0.000
  XR-storage              2.78    359.18      0  02:55       1.936     0.000
  
  
  **********************
  Storage Volume Summary
  **********************
  
  --------------------------------------------------------------------------------------------------
                         Average     Avg  Evap Exfil       Maximum     Max    Time of Max    Maximum
                          Volume    Pcnt  Pcnt  Pcnt        Volume    Pcnt     Occurrence    Outflow
  Storage Unit           1000 m3    Full  Loss  Loss       1000 m3    Full    days hr:min        LPS
  --------------------------------------------------------------------------------------------------
  JK-storage               0.122      42     0     0         0.291     100       0  02:15     600.00
  CC-storage               3.005      19     0     0         3.866      25       0  03:23     400.00
  XR-storage               0.829      89     0     0         0.926     100       0  02:31     380.00
  
  
  ***********************
  Outfall Loading Summary
  ***********************
  
  -----------------------------------------------------------
                         Flow       Avg       Max       Total
                         Freq      Flow      Flow      Volume
  Outfall Node           Pcnt       LPS       LPS    10^6 ltr
  -----------------------------------------------------------
  WSC                  100.00    652.80    974.14      16.379
  3                     92.80    231.15    517.18       4.761
  4                     43.65     71.63    175.51       0.745
  5                      0.00      0.00      0.00       0.000
  -----------------------------------------------------------
  System                59.11    955.59   1445.91      21.886
  
  
  ********************
  Link Flow Summary
  ********************
  
  -----------------------------------------------------------------------------
                                 Maximum  Time of Max   Maximum    Max/    Max/
                                  |Flow|   Occurrence   |Veloc|    Full    Full
  Link                 Type          LPS  days hr:min     m/sec    Flow   Depth
  -----------------------------------------------------------------------------
  WS02003066WSF200     CONDUIT    598.15     0  02:11      2.80    0.10    0.25
  WS02006287WS02006284 CONDUIT    274.09     0  02:09      1.78    0.13    0.25
  WS02006284WS02006280 CONDUIT    274.19     0  02:09      2.02    0.11    0.23
  WS02006280WS02006229 CONDUIT    274.19     0  02:09      3.26    0.06    0.16
  WS02006229WS02006228 CONDUIT    588.42     0  02:06      1.17    1.95    1.00
  WS02006256WS02006235 CONDUIT    158.11     0  00:13      2.30    1.67    1.00
  WS02006253WS02006251 CONDUIT     64.46     0  02:11      0.52    0.19    0.98
  WS02006252WS02006251 CONDUIT    400.61     0  04:19      3.19    1.47    1.00
  WS02006251WS02006249 CONDUIT    453.76     0  02:10      1.21    1.31    0.94
  WS02006249WS02006248 CONDUIT    353.63     0  06:30      1.15    1.94    0.89
  WS02006248WS02006247 CONDUIT    347.80     0  06:31      1.12    0.76    0.94
  WS02006247WS02006245 CONDUIT    341.41     0  06:31      1.07    2.71    0.99
  WS02006245WS02006243 CONDUIT    335.93     0  04:01      1.08    0.99    1.00
  WS02006243WS02006242 CONDUIT    336.05     0  04:20      0.94    0.72    1.00
  WS02006242WS02006240 CONDUIT    339.52     0  04:20      0.90    1.35    1.00
  WS02006240WS02006239 CONDUIT    342.43     0  04:20      0.94    1.08    1.00
  WS02006239WS02006238 CONDUIT    343.48     0  04:20      0.90    1.10    1.00
  WS02006238WS02006235 CONDUIT    343.27     0  04:20      0.91    0.77    1.00
  WS02006235WS02006234 CONDUIT    392.19     0  04:30      1.04    4.14    1.00
  WS02006234WS02006232 CONDUIT    392.06     0  04:30      1.02    0.79    1.00
  WS02006232WS02006231 CONDUIT    392.04     0  04:30      1.06    0.82    1.00
  WS02006231WS02006230 CONDUIT    391.69     0  04:30      1.35    5.94    1.00
  WS02006230WS02006229 CONDUIT    401.79     0  04:31      1.04    8.94    1.00
  WS02006228WS02006109 CONDUIT    588.41     0  02:06      1.17    2.57    1.00
  WS02006116WS02004401 CONDUIT    600.72     0  02:07      0.81    0.83    0.89
  WS02006115WS02006116 CONDUIT    600.89     0  02:07      0.88    0.77    0.82
  WS02006113WS02006111 CONDUIT    616.98     0  02:06      2.54    0.74    0.49
  WS02006112WS02006115 CONDUIT    615.58     0  02:07      0.83    0.36    0.90
  WS02006111WS02006112 CONDUIT    596.76     0  02:08      1.63    0.28    0.68
  WS02006110WS02006113 CONDUIT    591.21     0  02:07      1.37    0.54    0.80
  WS02006109WS02006110 CONDUIT    589.53     0  02:06      1.17    1.13    1.00
  WS02004411WS02004412 CONDUIT    598.08     0  02:10      0.98    0.85    0.73
  WS02004401WS02004402 CONDUIT    600.10     0  02:07      0.80    0.72    0.91
  WS02004413WS02003067 CONDUIT    598.07     0  02:11      1.18    0.26    0.62
  WS02004412WS02004413 CONDUIT    598.26     0  02:11      0.88    0.40    0.81
  WS02004410WS02004411 CONDUIT    598.33     0  02:10      0.98    0.82    0.72
  WS02004409WS02004410 CONDUIT    598.41     0  02:08      1.00    0.77    0.72
  WS02004407WS02004409 CONDUIT    598.85     0  02:08      1.48    0.21    0.51
  WS02004406WS02004407 CONDUIT    599.22     0  02:08      1.11    0.27    0.65
  WS02004405WS02004406 CONDUIT    599.54     0  02:08      0.76    1.18    0.99
  WS02004404WS02004405 CONDUIT    599.63     0  02:08      0.84    5.87    1.00
  WS02004403WS02004404 CONDUIT    599.44     0  02:08      0.77    0.43    0.97
  WS02004402WS02004403 CONDUIT    599.30     0  02:07      0.79    0.86    0.93
  WS02004139WS02001211 CONDUIT    380.79     0  07:08      0.90    0.48    0.59
  WS02004138WS02004139 CONDUIT    394.13     0  00:00      3.62    0.08    0.43
  WS02003067WS02003066 CONDUIT    598.13     0  02:11      1.28    0.19    0.43
  WS02001213WS02003059 CONDUIT    390.13     0  07:07      0.89    0.64    0.78
  WS02001212WS02001213 CONDUIT    389.20     0  07:08      1.32    0.60    0.47
  WS02001211WS02001212 CONDUIT    388.68     0  07:08      0.78    0.30    0.64
  WS02003072WS02003073 CONDUIT    972.04     0  02:24      1.75    2.10    0.49
  WS02003069WS02003072 CONDUIT    971.69     0  02:24      1.64    0.47    0.52
  WS02003060WS02003069 CONDUIT    971.60     0  02:23      1.88    0.38    0.47
  WS02003059WS02003060 CONDUIT    391.38     0  07:07      0.95    0.26    0.67
  HS02004901HS02004770 CONDUIT     12.22     0  02:07      0.05    0.05    0.35
  HS02004876HS02004881 CONDUIT     51.32     0  02:08      0.76    0.55    0.10
  HS02004870HS02004876 CONDUIT     41.17     0  02:09      0.52    0.03    0.11
  HS02004842HS02004848 CONDUIT      8.71     0  02:17      0.04    0.01    0.29
  HS02004837HS02004842 CONDUIT      8.85     0  02:14      0.42    0.01    0.30
  HS02004830HS02004837 CONDUIT     32.31     0  02:09      0.50    0.03    0.09
  HS02004824HS02004830 CONDUIT     32.45     0  02:09      0.53    0.04    0.09
  HS02004817HS02004824 CONDUIT     59.84     0  02:10      0.20    0.03    0.43
  HS02004770HS02004777 CONDUIT     64.45     0  02:07      0.26    0.12    0.36
  HS02004799HS02004480 CONDUIT    164.63     0  02:07      0.67    0.21    0.35
  HS02004792HS02004799 CONDUIT    149.69     0  02:07      0.76    0.09    0.28
  HS02004788HS02004792 CONDUIT     86.94     0  02:08      0.90    0.06    0.14
  HS02004785HS02004788 CONDUIT     64.57     0  02:08      0.57    0.49    0.16
  HS02004777HS02004785 CONDUIT     64.44     0  02:07      0.31    0.08    0.29
  HS02004480HS02004478 CONDUIT    195.75     0  02:08      1.06    0.82    0.26
  HS02004479HS02004480 CONDUIT     31.31     0  02:10      0.28    0.03    0.34
  HS02004862HS02004870 CONDUIT     31.19     0  02:09      0.56    0.03    0.08
  HS02004848HS02004852 CONDUIT     13.78     0  02:09      0.38    0.02    0.05
  HS02004856HS02004862 CONDUIT     21.24     0  02:09      0.41    0.02    0.07
  HS02004852HS02004856 CONDUIT     13.76     0  02:09      0.18    0.02    0.11
  HS02004802HS02004478 CONDUIT     78.88     0  02:11      0.38    0.07    0.29
  HS02004478WS02006287 CONDUIT    274.08     0  02:09      1.48    0.08    0.21
  HS02004817HS02004807 CONDUIT     60.62     0  02:11      0.15    0.04    0.56
  HS02004807HS02004802 CONDUIT     78.69     0  02:10      0.32    0.15    0.35
  YS02001759YS02001757 CONDUIT    503.73     0  02:46      0.64    0.36    1.00
  YS02001762YS02001759 CONDUIT    259.76     0  02:29      0.33    0.30    1.00
  YS02001765YS02001762 CONDUIT    258.82     0  02:46      0.33    0.24    1.00
  YS02001770YS02001767 CONDUIT    257.72     0  02:46      0.38    1.02    1.00
  YS02001774YS02001770 CONDUIT    284.14     0  03:29      0.36    0.18    1.00
  YS02001779YS02001774 CONDUIT    284.40     0  03:29      0.36    0.14    1.00
  YS02001649YS02001757 CONDUIT    800.10     0  02:27      1.02    0.49    1.00
  YS02001767YS02001765 CONDUIT    258.58     0  02:46      0.35    0.33    1.00
  YS02006561YS02001783 CONDUIT    841.49     0  02:58      2.12    0.44    1.00
  YS02001783YS02001784 CONDUIT    841.51     0  02:57      1.67    1.16    1.00
  YS02001784YS02001785 CONDUIT    842.67     0  02:58      1.73    1.96    1.00
  YS02001788YS02001790 CONDUIT    842.69     0  02:57      2.27    0.62    1.00
  YS02001790YS02001791 CONDUIT    842.93     0  02:58      2.75    0.92    1.00
  YS02001791YS02001793 CONDUIT    842.79     0  02:57      5.56    0.36    1.00
  YS02001910YS02001907 CONDUIT    322.62     0  03:06      0.49    0.18    1.00
  YS02001786YS02001788 CONDUIT    842.55     0  02:58      2.18    1.62    1.00
  YS02001915YS02001910 CONDUIT    322.51     0  03:06      0.56    0.16    1.00
  YS02001918YS02001915 CONDUIT    151.02     0  03:06      0.44    0.08    0.91
  YS02001923YS02001920 CONDUIT    136.82     0  03:04      0.66    0.06    0.75
  YS02001926YS02001923 CONDUIT    111.91     0  03:02      0.76    0.16    0.43
  YS02001929YS02001926 CONDUIT    104.02     0  03:02      0.81    0.05    0.31
  YS02001920YS02001918 CONDUIT    149.92     0  03:07      0.65    0.15    0.84
  YS02001629YS02163301 CONDUIT    191.25     0  02:23      0.24    0.24    1.00
  YS02001619YS02001622 CONDUIT    183.69     0  02:54      0.67    0.27    1.00
  YS02001622YS02001625 CONDUIT    183.52     0  02:54      0.32    0.10    1.00
  YS02001625YS02001629 CONDUIT    180.61     0  02:17      0.27    0.09    1.00
  YS02163301YS02001633 CONDUIT    191.42     0  02:23      0.24    0.18    1.00
  YS02163601YS02164001 CONDUIT    374.30     0  02:39      0.48    0.33    1.00
  YS02164001YS02001641 CONDUIT    375.03     0  02:39      0.48    0.51    1.00
  YS02001641YS02001644 CONDUIT    375.28     0  02:39      0.48    1.21    1.00
  YS02001647YS02001649 CONDUIT    569.09     0  02:39      0.72    0.30    1.00
  YS02006553YS02006556 CONDUIT    588.72     0  03:03      0.75    0.50    1.00
  YS02006556YS02006558 CONDUIT    588.87     0  03:04      0.75    0.46    1.00
  YSB6556YSB1171       CONDUIT     18.03     0  02:09      0.07    0.02    0.61
  YS02001907YS02006553 CONDUIT    588.72     0  03:04      0.65    0.69    1.00
  YS02006558YS02006561 CONDUIT    842.92     0  02:58      3.17    1.86    1.00
  YS02001633YS02163601 CONDUIT    373.86     0  02:39      0.48    0.39    1.00
  YS02001644YS02001647 CONDUIT    568.77     0  02:39      0.72    0.33    1.00
  YS02001745YS02001748 CONDUIT    543.19     0  02:26      1.53    0.21    0.94
  YS02001748YS02001751 CONDUIT    325.49     0  02:19      1.14    0.16    1.00
  YS02001751YS02001754 CONDUIT    271.75     0  02:26      0.97    0.13    1.00
  YS02001754YS02001757 CONDUIT    272.07     0  02:26      0.35    0.11    1.00
  YS02001882YS02001884 CONDUIT     25.20     0  02:19      0.12    0.03    1.00
  YS02001884YS02001887 CONDUIT     43.58     0  02:18      0.09    0.06    1.00
  YS02001890YS02001895 CONDUIT    303.63     0  02:37      0.46    0.14    1.00
  YS02001895YS02001898 CONDUIT    303.03     0  02:43      0.56    0.53    1.00
  YS02001898YS02001901 CONDUIT    302.64     0  02:51      0.49    0.20    1.00
  YS02001901YS02001904 CONDUIT    302.73     0  02:51      0.45    0.47    1.00
  YS02001904YS02001907 CONDUIT    302.94     0  02:51      0.41    0.11    1.00
  YS02001887YS02001890 CONDUIT    303.13     0  02:40      0.42    0.52    1.00
  YS02001652YS02001649 CONDUIT    304.14     0  02:09      0.58    0.15    1.00
  YS02001655YS02001652 CONDUIT    304.07     0  02:09      1.05    0.15    1.00
  YS02001658YS02001655 CONDUIT    385.40     0  02:14      1.31    0.16    1.00
  YS02001661YS02001658 CONDUIT    517.38     0  02:26      1.61    0.20    1.00
  YS02001664YS02001661 CONDUIT    622.66     0  02:41      1.57    0.20    0.72
  YSB1154YSB6556       CONDUIT     17.99     0  02:06      0.16    0.03    0.50
  YSB1174YSB1171       CONDUIT     13.75     0  01:36      0.06    0.02    0.62
  YSB1171HS02004479    CONDUIT     31.20     0  02:09      0.54    0.02    0.48
  HS02004881HS02006253 CONDUIT     56.62     0  02:08      1.84    0.01    0.28
  YS02001793JiankangQianchi CONDUIT    946.68     0  02:13     15.35    0.08    1.00
  YS02001757CaochengTiaoxuchi CONDUIT   1462.96     0  02:38      2.40    0.64    1.00
  WSF200WS02003060     CONDUIT    598.36     0  02:12      1.82    0.13    0.35
  1                    CONDUIT    974.14     0  02:25      3.30    0.34    0.40
  2                    CONDUIT    175.51     0  02:43      5.65    0.42    0.45
  3                    CONDUIT    517.18     0  02:00      9.86    0.82    0.70
  4                    CONDUIT      0.00     0  00:00      0.00    0.00    0.00
  CC-Pump-1            PUMP       200.00     0  02:00              1.00
  CC-Pump-2            PUMP       200.00     0  02:40              1.00
  JK-Pump-1            PUMP       300.00     0  01:50              1.00
  JK-Pump-2            PUMP       300.00     0  02:20              1.00
  XR-Pump-1            PUMP        95.00     0  00:00              1.00
  XR-Pump-2            PUMP        95.00     0  00:00              1.00
  XR-Pump-3            PUMP        95.00     0  00:00              1.00
  XR-Pump-4            PUMP        95.00     0  00:00              1.00
  
  
  ***************************
  Flow Classification Summary
  ***************************
  
  -------------------------------------------------------------------------------------
                      Adjusted    ---------- Fraction of Time in Flow Class ---------- 
                       /Actual         Up    Down  Sub   Sup   Up    Down  Norm  Inlet 
  Conduit               Length    Dry  Dry   Dry   Crit  Crit  Crit  Crit  Ltd   Ctrl  
  -------------------------------------------------------------------------------------
  WS02003066WSF200        1.00   0.01  0.05  0.00  0.00  0.94  0.00  0.00  0.60  0.00
  WS02006287WS02006284    1.00   0.03  0.01  0.00  0.60  0.36  0.00  0.00  0.68  0.00
  WS02006284WS02006280    1.00   0.04  0.00  0.00  0.00  0.00  0.00  0.96  0.00  0.00
  WS02006280WS02006229    1.00   0.04  0.00  0.00  0.00  0.00  0.00  0.96  0.00  0.00
  WS02006229WS02006228    1.00   0.00  0.00  0.00  1.00  0.00  0.00  0.00  0.00  0.00
  WS02006256WS02006235    1.00   0.00  0.00  0.00  0.99  0.00  0.00  0.00  0.00  0.00
  WS02006253WS02006251    1.00   0.02  0.01  0.00  0.96  0.00  0.00  0.00  0.00  0.00
  WS02006252WS02006251    1.00   0.06  0.00  0.00  0.00  0.00  0.94  0.00  0.00  0.00
  WS02006251WS02006249    1.00   0.00  0.00  0.00  1.00  0.00  0.00  0.00  0.20  0.00
  WS02006249WS02006248    1.00   0.00  0.00  0.00  0.91  0.00  0.08  0.00  0.00  0.00
  WS02006248WS02006247    1.00   0.00  0.00  0.00  0.98  0.00  0.00  0.02  0.09  0.00
  WS02006247WS02006245    1.00   0.00  0.00  0.00  0.98  0.00  0.00  0.02  0.00  0.00
  WS02006245WS02006243    1.00   0.01  0.00  0.00  0.96  0.00  0.00  0.03  0.01  0.00
  WS02006243WS02006242    1.00   0.01  0.00  0.00  0.99  0.00  0.00  0.00  0.14  0.00
  WS02006242WS02006240    1.00   0.00  0.00  0.00  0.99  0.00  0.00  0.00  0.00  0.00
  WS02006240WS02006239    1.00   0.00  0.00  0.00  0.97  0.00  0.00  0.02  0.01  0.00
  WS02006239WS02006238    1.00   0.00  0.00  0.00  1.00  0.00  0.00  0.00  0.00  0.00
  WS02006238WS02006235    1.00   0.00  0.00  0.00  1.00  0.00  0.00  0.00  0.00  0.00
  WS02006235WS02006234    1.00   0.00  0.00  0.00  0.97  0.00  0.02  0.00  0.00  0.00
  WS02006234WS02006232    1.00   0.00  0.00  0.00  1.00  0.00  0.00  0.00  0.05  0.00
  WS02006232WS02006231    1.00   0.00  0.00  0.00  0.99  0.00  0.00  0.00  0.00  0.00
  WS02006231WS02006230    1.00   0.00  0.00  0.00  0.73  0.00  0.27  0.00  0.00  0.00
  WS02006230WS02006229    1.00   0.00  0.00  0.00  0.99  0.00  0.00  0.01  0.00  0.00
  WS02006228WS02006109    1.00   0.00  0.00  0.00  1.00  0.00  0.00  0.00  0.00  0.00
  WS02006116WS02004401    1.00   0.02  0.00  0.00  0.98  0.00  0.00  0.00  0.00  0.00
  WS02006115WS02006116    1.00   0.02  0.00  0.00  0.97  0.00  0.00  0.01  0.00  0.00
  WS02006113WS02006111    1.00   0.02  0.00  0.00  0.00  0.98  0.00  0.00  0.10  0.00
  WS02006112WS02006115    1.00   0.02  0.00  0.00  0.98  0.00  0.00  0.00  0.00  0.00
  WS02006111WS02006112    1.00   0.02  0.00  0.00  0.98  0.00  0.00  0.00  0.95  0.00
  WS02006110WS02006113    1.00   0.00  0.01  0.00  0.98  0.00  0.00  0.00  0.00  0.00
  WS02006109WS02006110    1.00   0.00  0.00  0.00  1.00  0.00  0.00  0.00  0.00  0.00
  WS02004411WS02004412    1.00   0.03  0.00  0.00  0.97  0.00  0.00  0.00  0.00  0.00
  WS02004401WS02004402    1.00   0.02  0.00  0.00  0.98  0.00  0.00  0.00  0.00  0.00
  WS02004413WS02003067    1.00   0.04  0.01  0.00  0.00  0.00  0.95  0.00  0.00  0.00
  WS02004412WS02004413    1.00   0.03  0.00  0.00  0.97  0.00  0.00  0.00  0.03  0.00
  WS02004410WS02004411    1.00   0.03  0.00  0.00  0.97  0.00  0.00  0.00  0.02  0.00
  WS02004409WS02004410    1.00   0.03  0.00  0.00  0.97  0.00  0.00  0.00  0.00  0.00
  WS02004407WS02004409    1.00   0.03  0.00  0.00  0.96  0.00  0.00  0.00  0.87  0.00
  WS02004406WS02004407    1.00   0.00  0.03  0.00  0.97  0.00  0.00  0.00  0.00  0.00
  WS02004405WS02004406    1.00   0.00  0.00  0.00  1.00  0.00  0.00  0.00  0.03  0.00
  WS02004404WS02004405    1.00   0.00  0.00  0.00  1.00  0.00  0.00  0.00  0.00  0.00
  WS02004403WS02004404    1.00   0.00  0.02  0.00  0.98  0.00  0.00  0.00  0.01  0.00
  WS02004402WS02004403    1.00   0.02  0.00  0.00  0.98  0.00  0.00  0.00  0.00  0.00
  WS02004139WS02001211    1.00   0.00  0.00  0.00  1.00  0.00  0.00  0.00  0.00  0.00
  WS02004138WS02004139    1.00   0.00  0.00  0.00  1.00  0.00  0.00  0.00  1.00  0.00
  WS02003067WS02003066    1.00   0.05  0.01  0.00  0.94  0.00  0.00  0.00  0.00  0.00
  WS02001213WS02003059    1.00   0.00  0.00  0.00  1.00  0.00  0.00  0.00  0.00  0.00
  WS02001212WS02001213    1.00   0.00  0.00  0.00  0.92  0.00  0.08  0.00  0.00  0.00
  WS02001211WS02001212    1.00   0.00  0.00  0.00  1.00  0.00  0.00  0.00  0.00  0.00
  WS02003072WS02003073    1.00   0.00  0.00  0.00  0.00  0.00  0.00  1.00  0.00  0.00
  WS02003069WS02003072    1.00   0.00  0.00  0.00  1.00  0.00  0.00  0.00  0.16  0.00
  WS02003060WS02003069    1.00   0.00  0.00  0.00  0.99  0.01  0.00  0.00  0.11  0.00
  WS02003059WS02003060    1.00   0.00  0.00  0.00  1.00  0.00  0.00  0.00  0.00  0.00
  HS02004901HS02004770    1.00   0.04  0.00  0.00  0.96  0.00  0.00  0.00  0.00  0.00
  HS02004876HS02004881    1.00   0.00  0.00  0.00  1.00  0.00  0.00  0.00  0.00  0.00
  HS02004870HS02004876    1.00   0.00  0.00  0.00  0.99  0.01  0.00  0.00  0.95  0.00
  HS02004842HS02004848    1.00   0.00  0.04  0.00  0.96  0.00  0.00  0.00  0.58  0.00
  HS02004837HS02004842    1.00   0.00  0.00  0.00  1.00  0.00  0.00  0.00  0.11  0.00
  HS02004830HS02004837    1.00   0.00  0.00  0.00  1.00  0.00  0.00  0.00  0.99  0.00
  HS02004824HS02004830    1.00   0.00  0.00  0.00  1.00  0.00  0.00  0.00  0.00  0.00
  HS02004817HS02004824    1.00   0.00  0.00  0.00  1.00  0.00  0.00  0.00  1.00  0.00
  HS02004770HS02004777    1.00   0.00  0.04  0.00  0.96  0.00  0.00  0.00  0.03  0.00
  HS02004799HS02004480    1.00   0.00  0.01  0.00  0.96  0.00  0.03  0.00  0.00  0.00
  HS02004792HS02004799    1.00   0.00  0.00  0.00  1.00  0.00  0.00  0.00  0.98  0.00
  HS02004788HS02004792    1.00   0.00  0.00  0.00  1.00  0.00  0.00  0.00  0.98  0.00
  HS02004785HS02004788    1.00   0.00  0.00  0.00  1.00  0.00  0.00  0.00  0.00  0.00
  HS02004777HS02004785    1.00   0.00  0.00  0.00  1.00  0.00  0.00  0.00  0.12  0.00
  HS02004480HS02004478    1.00   0.04  0.00  0.00  0.65  0.00  0.00  0.31  0.00  0.00
  HS02004479HS02004480    1.00   0.01  0.00  0.00  0.99  0.00  0.00  0.00  0.12  0.00
  HS02004862HS02004870    1.00   0.00  0.00  0.00  1.00  0.00  0.00  0.00  0.04  0.00
  HS02004848HS02004852    1.00   0.04  0.00  0.00  0.96  0.00  0.00  0.00  0.76  0.00
  HS02004856HS02004862    1.00   0.00  0.04  0.00  0.96  0.00  0.00  0.00  0.83  0.00
  HS02004852HS02004856    1.00   0.04  0.00  0.00  0.96  0.00  0.00  0.00  0.86  0.00
  HS02004802HS02004478    1.00   0.04  0.00  0.00  0.96  0.00  0.00  0.00  0.03  0.00
  HS02004478WS02006287    1.00   0.04  0.00  0.00  0.72  0.24  0.00  0.00  0.65  0.00
  HS02004817HS02004807    1.00   0.00  0.04  0.00  0.96  0.00  0.00  0.00  0.01  0.00
  HS02004807HS02004802    1.00   0.04  0.00  0.00  0.96  0.00  0.00  0.00  0.00  0.00
  YS02001759YS02001757    1.00   0.00  0.00  0.00  1.00  0.00  0.00  0.00  0.16  0.00
  YS02001762YS02001759    1.00   0.00  0.00  0.00  1.00  0.00  0.00  0.00  0.03  0.00
  YS02001765YS02001762    1.00   0.00  0.00  0.00  1.00  0.00  0.00  0.00  0.14  0.00
  YS02001770YS02001767    1.00   0.00  0.00  0.00  1.00  0.00  0.00  0.00  0.00  0.00
  YS02001774YS02001770    1.00   0.00  0.04  0.00  0.96  0.00  0.00  0.00  0.03  0.00
  YS02001779YS02001774    1.00   0.00  0.00  0.00  1.00  0.00  0.00  0.00  0.18  0.00
  YS02001649YS02001757    1.00   0.00  0.00  0.00  1.00  0.00  0.00  0.00  0.16  0.00
  YS02001767YS02001765    1.00   0.00  0.00  0.00  1.00  0.00  0.00  0.00  0.00  0.00
  YS02006561YS02001783    1.00   0.04  0.00  0.00  0.31  0.64  0.00  0.00  0.57  0.00
  YS02001783YS02001784    1.00   0.00  0.04  0.00  0.96  0.00  0.00  0.00  0.00  0.00
  YS02001784YS02001785    1.00   0.00  0.00  0.00  1.00  0.00  0.00  0.00  0.17  0.00
  YS02001788YS02001790    1.00   0.00  0.00  0.00  0.40  0.60  0.00  0.00  0.52  0.00
  YS02001790YS02001791    1.00   0.00  0.00  0.00  0.36  0.64  0.00  0.00  0.49  0.00
  YS02001791YS02001793    1.00   0.00  0.00  0.00  0.38  0.62  0.00  0.00  0.02  0.00
  YS02001910YS02001907    1.00   0.00  0.00  0.00  0.99  0.00  0.00  0.00  0.12  0.00
  YS02001786YS02001788    1.00   0.00  0.00  0.00  0.38  0.62  0.00  0.00  0.00  0.00
  YS02001915YS02001910    1.00   0.00  0.00  0.00  0.99  0.01  0.00  0.00  0.16  0.00
  YS02001918YS02001915    1.00   0.00  0.00  0.00  1.00  0.00  0.00  0.00  0.59  0.00
  YS02001923YS02001920    1.00   0.00  0.00  0.00  1.00  0.00  0.00  0.00  0.86  0.00
  YS02001926YS02001923    1.00   0.00  0.03  0.00  0.10  0.00  0.87  0.00  0.00  0.00
  YS02001929YS02001926    1.00   0.00  0.04  0.00  0.96  0.00  0.00  0.00  0.85  0.00
  YS02001920YS02001918    1.00   0.00  0.00  0.00  1.00  0.00  0.00  0.00  0.00  0.00
  YS02001629YS02163301    1.00   0.04  0.00  0.00  0.96  0.00  0.00  0.00  0.00  0.00
  YS02001619YS02001622    1.00   0.04  0.00  0.00  0.96  0.00  0.00  0.00  0.00  0.00
  YS02001622YS02001625    1.00   0.04  0.00  0.00  0.96  0.00  0.00  0.00  0.04  0.00
  YS02001625YS02001629    1.00   0.04  0.01  0.00  0.94  0.00  0.01  0.00  0.00  0.00
  YS02163301YS02001633    1.00   0.00  0.04  0.00  0.96  0.00  0.00  0.00  0.00  0.00
  YS02163601YS02164001    1.00   0.00  0.03  0.00  0.97  0.00  0.00  0.00  0.00  0.00
  YS02164001YS02001641    1.00   0.00  0.03  0.00  0.97  0.00  0.00  0.00  0.06  0.00
  YS02001641YS02001644    1.00   0.00  0.00  0.00  1.00  0.00  0.00  0.00  0.00  0.00
  YS02001647YS02001649    1.00   0.00  0.04  0.00  0.96  0.00  0.00  0.00  0.01  0.00
  YS02006553YS02006556    1.00   0.00  0.00  0.00  1.00  0.00  0.00  0.00  0.03  0.00
  YS02006556YS02006558    1.00   0.00  0.00  0.00  1.00  0.00  0.00  0.00  0.00  0.00
  YSB6556YSB1171          1.00   0.02  0.02  0.00  0.97  0.00  0.00  0.00  0.00  0.00
  YS02001907YS02006553    1.00   0.00  0.00  0.00  1.00  0.00  0.00  0.00  0.00  0.00
  YS02006558YS02006561    1.00   0.04  0.00  0.00  0.16  0.80  0.00  0.00  0.51  0.00
  YS02001633YS02163601    1.00   0.00  0.00  0.00  1.00  0.00  0.00  0.00  0.15  0.00
  YS02001644YS02001647    1.00   0.00  0.04  0.00  0.96  0.00  0.00  0.00  0.00  0.00
  YS02001745YS02001748    1.00   0.00  0.00  0.00  0.92  0.01  0.00  0.08  0.05  0.00
  YS02001748YS02001751    1.00   0.00  0.00  0.00  0.98  0.02  0.00  0.00  0.14  0.00
  YS02001751YS02001754    1.00   0.00  0.00  0.00  0.95  0.00  0.00  0.05  0.02  0.00
  YS02001754YS02001757    1.00   0.00  0.00  0.00  1.00  0.00  0.00  0.00  0.18  0.00
  YS02001882YS02001884    1.00   0.04  0.00  0.00  0.96  0.00  0.00  0.00  0.00  0.00
  YS02001884YS02001887    1.00   0.02  0.01  0.00  0.97  0.00  0.00  0.00  0.00  0.00
  YS02001890YS02001895    1.00   0.00  0.04  0.00  0.96  0.00  0.00  0.00  0.00  0.00
  YS02001895YS02001898    1.00   0.04  0.00  0.00  0.95  0.00  0.00  0.00  0.00  0.00
  YS02001898YS02001901    1.00   0.04  0.00  0.00  0.96  0.00  0.00  0.00  0.01  0.00
  YS02001901YS02001904    1.00   0.04  0.00  0.00  0.96  0.00  0.00  0.00  0.00  0.00
  YS02001904YS02001907    1.00   0.00  0.04  0.00  0.96  0.00  0.00  0.00  0.00  0.00
  YS02001887YS02001890    1.00   0.00  0.00  0.00  0.99  0.00  0.01  0.00  0.00  0.00
  YS02001652YS02001649    1.00   0.00  0.00  0.00  1.00  0.00  0.00  0.00  0.16  0.00
  YS02001655YS02001652    1.00   0.00  0.00  0.00  0.95  0.00  0.00  0.05  0.02  0.00
  YS02001658YS02001655    1.00   0.00  0.04  0.00  0.94  0.02  0.00  0.00  0.03  0.00
  YS02001661YS02001658    1.00   0.04  0.00  0.00  0.91  0.05  0.00  0.00  0.04  0.00
  YS02001664YS02001661    1.00   0.04  0.00  0.00  0.88  0.09  0.00  0.00  0.19  0.00
  YSB1154YSB6556          1.00   0.03  0.00  0.00  0.97  0.00  0.00  0.00  0.02  0.00
  YSB1174YSB1171          1.00   0.02  0.01  0.00  0.97  0.00  0.00  0.00  0.00  0.00
  YSB1171HS02004479       1.00   0.02  0.00  0.00  0.98  0.00  0.00  0.01  0.10  0.00
  HS02004881HS02006253    1.00   0.02  0.00  0.00  0.79  0.03  0.00  0.16  0.67  0.00
  YS02001793JiankangQianchi    1.00   0.00  0.00  0.00  0.51  0.49  0.00  0.00  0.14  0.00
  YS02001757CaochengTiaoxuchi    1.00   0.00  0.06  0.00  0.93  0.01  0.00  0.00  0.00  0.00
  WSF200WS02003060        1.00   0.00  0.01  0.00  0.71  0.28  0.00  0.00  0.31  0.00
  1                       1.00   0.00  0.00  0.00  0.00  1.00  0.00  0.00  0.35  0.00
  2                       1.00   0.56  0.00  0.00  0.00  0.44  0.00  0.00  0.10  0.00
  3                       1.00   0.07  0.00  0.00  0.00  0.93  0.00  0.00  0.01  0.00
  4                       1.00   1.00  0.00  0.00  0.00  0.00  0.00  0.00  0.00  0.00
  
  
  *************************
  Conduit Surcharge Summary
  *************************
  
  ----------------------------------------------------------------------------
                                                           Hours        Hours 
                         --------- Hours Full --------   Above Full   Capacity
  Conduit                Both Ends  Upstream  Dnstream   Normal Flow   Limited
  ----------------------------------------------------------------------------
  WS02006229WS02006228        2.74      3.05      2.74      5.27         2.73
  WS02006256WS02006235        6.33      6.33      7.32      3.10         0.01
  WS02006253WS02006251        0.01      0.01      0.02      0.01         0.01
  WS02006252WS02006251        1.74      1.74      2.76      2.50         0.01
  WS02006251WS02006249        0.01      0.01      0.01      1.83         0.01
  WS02006249WS02006248        0.01      0.01      0.01      4.98         0.01
  WS02006247WS02006245        0.01      0.01      0.01      5.35         0.01
  WS02006245WS02006243        0.01      0.01      0.14      0.01         0.01
  WS02006243WS02006242        0.49      0.49      2.01      0.01         0.01
  WS02006242WS02006240        0.83      0.83      2.49      2.76         0.01
  WS02006240WS02006239        1.05      1.05      1.22      0.05         0.01
  WS02006239WS02006238        2.36      2.36      2.51      0.18         0.16
  WS02006238WS02006235        2.34      2.34      2.83      0.01         0.01
  WS02006235WS02006234        0.99      0.99      2.07      6.35         0.01
  WS02006234WS02006232        1.24      1.24      3.01      0.01         0.01
  WS02006232WS02006231        0.51      0.51      3.01      0.01         0.01
  WS02006231WS02006230        0.01      0.01      0.63      6.34         0.01
  WS02006230WS02006229        4.05      4.99      4.05      6.44         4.05
  WS02006228WS02006109        2.89      3.52      2.89      6.02         2.89
  WS02006112WS02006115        0.01      0.01      1.33      0.01         0.01
  WS02006111WS02006112        0.01      0.01      5.36      0.01         0.01
  WS02006110WS02006113        0.01      0.01      3.28      0.01         0.01
  WS02006109WS02006110        1.06      1.06      3.53      1.07         0.01
  WS02004405WS02004406        0.01      0.01      0.01      1.21         0.01
  WS02004404WS02004405        0.01      0.24      0.01      6.25         0.01
  WS02004403WS02004404        0.01      0.01      0.24      0.01         0.01
  WS02003072WS02003073        0.01      0.01      0.01      5.94         0.01
  YS02001759YS02001757        5.98      5.98      6.04      0.01         0.01
  YS02001762YS02001759        5.96      5.96      5.98      0.01         0.01
  YS02001765YS02001762        5.94      5.94      5.96      0.01         0.01
  YS02001770YS02001767        5.92      5.92      5.92      0.09         0.85
  YS02001774YS02001770        5.91      5.91      5.95      0.01         0.01
  YS02001779YS02001774        5.71      5.71      5.95      0.01         0.01
  YS02001649YS02001757        5.96      5.96      6.04      0.01         0.01
  YS02001767YS02001765        5.92      5.92      5.94      0.01         0.01
  YS02006561YS02001783        0.01      0.01      1.21      0.01         0.01
  YS02001783YS02001784        1.21      1.21      1.29      0.88         0.82
  YS02001784YS02001785        1.22      1.29      1.22      1.99         1.22
  YS02001788YS02001790        1.21      1.21      2.10      0.01         0.01
  YS02001790YS02001791        2.10      2.10      2.18      0.01         0.01
  YS02001791YS02001793        2.18      2.18      2.35      0.01         0.01
  YS02001910YS02001907        0.82      0.82      1.44      0.01         0.01
  YS02001786YS02001788        1.21      1.22      1.21      1.63         1.21
  YS02001915YS02001910        0.45      0.45      0.82      0.01         0.01
  YS02001918YS02001915        0.01      0.01      0.45      0.01         0.01
  YS02001629YS02163301        5.90      5.90      5.92      0.01         0.01
  YS02001619YS02001622        5.51      5.51      5.57      0.01         0.01
  YS02001622YS02001625        5.57      5.57      5.80      0.01         0.01
  YS02001625YS02001629        5.52      5.52      5.80      0.01         0.01
  YS02163301YS02001633        5.92      5.92      5.95      0.01         0.01
  YS02163601YS02164001        5.94      5.94      5.97      0.01         0.01
  YS02164001YS02001641        5.94      5.94      5.94      0.01         0.02
  YS02001641YS02001644        5.94      5.94      5.95      1.05         1.31
  YS02001647YS02001649        5.76      5.76      5.96      0.01         0.01
  YS02006553YS02006556        1.12      1.12      1.52      0.01         0.01
  YS02006556YS02006558        1.29      1.29      1.59      0.01         0.01
  YS02001907YS02006553        2.04      2.04      2.24      0.01         0.01
  YS02006558YS02006561        0.65      1.08      0.65      1.89         0.65
  YS02001633YS02163601        5.93      5.93      5.97      0.01         0.01
  YS02001644YS02001647        5.76      5.76      5.95      0.01         0.01
  YS02001745YS02001748        0.01      0.01      5.18      0.01         0.01
  YS02001748YS02001751        5.34      5.34      5.48      0.01         0.01
  YS02001751YS02001754        5.48      5.48      5.73      0.01         0.01
  YS02001754YS02001757        5.76      5.76      6.04      0.01         0.01
  YS02001882YS02001884        0.48      0.48      0.56      0.01         0.01
  YS02001884YS02001887        0.66      0.66      0.71      0.01         0.01
  YS02001890YS02001895        0.41      0.41      0.86      0.01         0.01
  YS02001895YS02001898        0.37      0.37      0.41      0.01         0.01
  YS02001898YS02001901        0.43      0.43      0.65      0.01         0.01
  YS02001901YS02001904        0.61      0.61      0.65      0.01         0.01
  YS02001904YS02001907        0.61      0.61      1.54      0.01         0.01
  YS02001887YS02001890        0.76      0.76      0.80      0.01         0.01
  YS02001652YS02001649        5.77      5.77      5.96      0.01         0.01
  YS02001655YS02001652        5.55      5.55      5.75      0.01         0.01
  YS02001658YS02001655        5.25      5.25      5.55      0.01         0.01
  YS02001661YS02001658        0.20      0.20      5.25      0.01         0.01
  YS02001664YS02001661        0.01      0.01      1.12      0.01         0.01
  YS02001793JiankangQianchi        2.32      2.32      3.23      0.01         0.01
  YS02001757CaochengTiaoxuchi        5.16      5.16      6.04      0.01         0.01
  
  
  ***************
  Pumping Summary
  ***************
  
  ---------------------------------------------------------------------------------------------------------
                                                  Min       Avg       Max     Total     Power    % Time Off
                        Percent   Number of      Flow      Flow      Flow    Volume     Usage    Pump Curve
  Pump                 Utilized   Start-Ups       LPS       LPS       LPS  10^6 ltr     Kw-hr    Low   High
  ---------------------------------------------------------------------------------------------------------
  CC-Pump-1               66.28           5      0.00    153.45    200.00     2.881      4.29    0.0    7.2
  CC-Pump-2               64.16           5      0.00    141.33    200.00     2.581      3.85    0.0   10.8
  JK-Pump-1               89.36           4      0.00    173.07    300.00     3.720     46.33    0.0    0.0
  JK-Pump-2               85.10           5      0.00    167.35    300.00     3.194     36.79    0.0    0.0
  XR-Pump-1               95.75           5      0.00     68.90     95.00     1.881     16.22    0.0    0.0
  XR-Pump-2               85.10           8      0.00     71.60     95.00     1.710     13.60    0.0    0.0
  XR-Pump-3               99.99           4      0.00     67.09     95.00     1.938     16.88    0.0    0.0
  XR-Pump-4               87.24           7      0.00     69.61     95.00     1.710     14.62    0.0    0.0
  

  Analysis begun on:  Tue Dec 21 10:00:49 2021
  Analysis ended on:  Tue Dec 21 10:00:53 2021
  Total elapsed time: 00:00:04