
  EPA STORM WATER MANAGEMENT MODEL - VERSION 5.1 (Build 5.3.0.dev0)
  --------------------------------------------------------------

  WARNING 04: minimum elevation drop used for Conduit WS02004404WS02004405
  WARNING 03: negative offset ignored for Link YS02001904YS02001907
  
  *********************************************************
  NOTE: The summary statistics displayed in this report are
  based on results found at every computational time step,  
  not just on results from each reporting time step.
  *********************************************************
  
  ****************
  Analysis Options
  ****************
  Flow Units ............... LPS
  Process Models:
    Rainfall/Runoff ........ YES
    RDII ................... NO
    Snowmelt ............... NO
    Groundwater ............ NO
    Flow Routing ........... YES
    Ponding Allowed ........ NO
    Water Quality .......... NO
  Infiltration Method ...... HORTON
  Flow Routing Method ...... DYNWAVE
  Surcharge Method ......... EXTRAN
  Starting Date ............ 08/28/2015 08:00:00
  Ending Date .............. 08/28/2015 15:50:00
  Antecedent Dry Days ...... 8.0
  Report Time Step ......... 00:01:00
  Wet Time Step ............ 00:01:00
  Dry Time Step ............ 00:01:00
  Routing Time Step ........ 5.00 sec
  Variable Time Step ....... YES
  Maximum Trials ........... 8
  Number of Threads ........ 4
  Head Tolerance ........... 0.001500 m
  
  
  **************************        Volume         Depth
  Runoff Quantity Continuity     hectare-m            mm
  **************************     ---------       -------
  Total Precipitation ......         4.854        10.627
  Evaporation Loss .........         0.000         0.000
  Infiltration Loss ........         1.246         2.727
  Surface Runoff ...........         2.607         5.707
  Final Storage ............         1.002         2.194
  Continuity Error (%) .....        -0.015
  
  
  **************************        Volume        Volume
  Flow Routing Continuity        hectare-m      10^6 ltr
  **************************     ---------     ---------
  Dry Weather Inflow .......         0.616         6.165
  Wet Weather Inflow .......         2.606        26.058
  Groundwater Inflow .......         0.000         0.000
  RDII Inflow ..............         0.000         0.000
  External Inflow ..........         0.102         1.024
  External Outflow .........         2.169        21.692
  Flooding Loss ............         0.753         7.532
  Evaporation Loss .........         0.000         0.000
  Exfiltration Loss ........         0.000         0.000
  Initial Stored Volume ....         0.076         0.761
  Final Stored Volume ......         0.597         5.969
  Continuity Error (%) .....        -3.485
  
  
  *************************
  Highest Continuity Errors
  *************************
  Node HS02004842 (17.68%)
  Node JK-storage (-15.04%)
  Node YS02001884 (10.85%)
  Node YS02001774 (6.83%)
  Node YSB1171 (3.62%)
  
  
  ***************************
  Time-Step Critical Elements
  ***************************
  Link 3 (54.50%)
  Link WS02006252WS02006251 (34.74%)
  Link WS02006238WS02006235 (4.19%)
  Link WS02006229WS02006228 (2.05%)
  
  
  ********************************
  Highest Flow Instability Indexes
  ********************************
  Link WS02006113WS02006111 (35)
  Link YS02001619YS02001622 (35)
  Link YS02001629YS02163301 (33)
  Link YS02163301YS02001633 (33)
  Link YS02163601YS02164001 (32)
  
  
  *************************
  Routing Time Step Summary
  *************************
  Minimum Time Step           :     0.09 sec
  Average Time Step           :     0.74 sec
  Maximum Time Step           :     5.00 sec
  Percent in Steady State     :    -0.00
  Average Iterations per Step :     4.72
  Percent Not Converging      :    25.85
  
  
  ***************************
  Subcatchment Runoff Summary
  ***************************
  
  ------------------------------------------------------------------------------------------------------------------------------
                            Total      Total      Total      Total     Imperv       Perv      Total       Total     Peak  Runoff
                           Precip      Runon       Evap      Infil     Runoff     Runoff     Runoff      Runoff   Runoff   Coeff
  Subcatchment                 mm         mm         mm         mm         mm         mm         mm    10^6 ltr      LPS
  ------------------------------------------------------------------------------------------------------------------------------
  sub0                      10.63       0.00       0.00       0.74       8.62       0.00       8.62        0.01     1.33   0.811
  sub1                      10.63       0.00       0.00       1.17       8.20       0.00       8.20        0.05     9.09   0.772
  sub2                      10.63       0.00       0.00       3.93       5.79       0.00       5.79        0.05     8.42   0.544
  sub3                      10.63       0.00       0.00       3.93       5.75       0.00       5.75        0.13    19.27   0.541
  sub4                      10.63       0.00       0.00       1.17       8.05       0.00       8.05        0.17    23.93   0.757
  sub5                      10.63       0.00       0.00       0.74       8.57       0.00       8.57        0.10    16.17   0.806
  sub7                      10.63       0.00       0.00       0.96       8.41       0.00       8.41        0.03     5.13   0.792
  sub8                      10.63       0.00       0.00       0.96       8.41       0.00       8.41        0.05     9.46   0.791
  sub9                      10.63       0.00       0.00       0.96       8.40       0.00       8.40        0.04     7.08   0.791
  sub10                     10.63       0.00       0.00       0.85       8.48       0.00       8.48        0.09    15.87   0.798
  sub11                     10.63       0.00       0.00       0.85       8.50       0.00       8.50        0.10    17.56   0.800
  sub12                     10.63       0.00       0.00       1.38       8.06       0.00       8.06        0.07    13.15   0.758
  sub14                     10.63       0.00       0.00       0.96       8.40       0.00       8.40        0.08    13.93   0.791
  sub15                     10.63       0.00       0.00       3.19       6.46       0.00       6.46        0.11    19.14   0.608
  sub16                     10.63       0.00       0.00       3.51       6.20       0.00       6.20        0.06    12.01   0.584
  sub17                     10.63       0.00       0.00       3.40       6.29       0.00       6.29        0.05     9.91   0.592
  sub22                     10.63       0.00       0.00       4.57       5.27       0.00       5.27        0.33    59.53   0.496
  sub23                     10.63       0.00       0.00       3.93       5.82       0.00       5.82        0.28    50.05   0.548
  sub60                     10.63       0.00       0.00       1.28       6.54       0.00       6.54        1.98   196.13   0.615
  sub61                     10.63       0.00       0.00       1.81       6.69       0.00       6.69        2.06   224.83   0.630
  sub62                     10.63       0.00       0.00       0.85       7.26       0.00       7.26        2.23   236.97   0.684
  sub63                     10.63       0.00       0.00       3.08       5.87       0.00       5.87        1.78   199.96   0.553
  sub64                     10.63       0.00       0.00       1.59       6.27       0.00       6.27        1.91   187.22   0.590
  sub65                     10.63       0.00       0.00       1.38       6.37       0.00       6.37        1.96   190.91   0.599
  sub66                     10.63       0.00       0.00       3.08       5.39       0.00       5.39        1.65   167.73   0.507
  sub67                     10.63       0.00       0.00       0.85       7.71       0.00       7.71        2.38   272.25   0.726
  sub68                     10.63       0.00       0.00       1.49       7.05       0.00       7.05        2.17   241.26   0.664
  sub69                     10.63       0.00       0.00       1.59       7.35       0.00       7.35        1.72   204.41   0.692
  sub70                     10.63       7.50       0.00       6.16       9.71       0.01       9.71        2.22   229.02   0.536
  sub71                     10.63       0.00       0.00       0.85       7.06       0.00       7.06        1.67   170.86   0.664
  sub72                     10.63       0.00       0.00       0.74       5.52       0.00       5.52        1.12    91.59   0.519
  sub73                     10.63       9.45       0.00       6.83      10.48       0.00      10.49        2.46   215.21   0.522
  sub74                     10.63       0.00       0.00       7.97       2.19       0.00       2.19        0.88   108.49   0.206
  
  
  ******************
  Node Depth Summary
  ******************
  
  ---------------------------------------------------------------------------------
                                 Average  Maximum  Maximum  Time of Max    Reported
                                   Depth    Depth      HGL   Occurrence   Max Depth
  Node                 Type       Meters   Meters   Meters  days hr:min      Meters
  ---------------------------------------------------------------------------------
  WS02001211           JUNCTION     0.67     0.78     5.61     0  07:50        0.78
  WS02001212           JUNCTION     0.40     0.48     5.55     0  07:50        0.48
  WS02001213           JUNCTION     0.64     0.72     5.48     0  07:50        0.72
  WS02003069           JUNCTION     0.46     0.55     5.13     0  01:57        0.55
  WS02003072           JUNCTION     0.53     0.61     4.98     0  01:58        0.61
  WS02003073           JUNCTION     0.32     0.37     4.44     0  01:58        0.37
  WS02003060           JUNCTION     0.41     0.48     5.42     0  01:57        0.48
  WS02003066           JUNCTION     0.24     0.30     5.86     0  02:13        0.30
  WS02003059           JUNCTION     0.70     0.77     5.46     0  07:50        0.77
  WS02003067           JUNCTION     0.60     0.71     6.03     0  02:13        0.71
  WS02004401           JUNCTION     0.71     0.88     6.88     0  02:11        0.88
  WS02004402           JUNCTION     0.74     0.90     6.86     0  02:12        0.90
  WS02004403           JUNCTION     0.76     0.91     6.84     0  02:12        0.91
  WS02004404           JUNCTION     0.83     0.98     6.83     0  02:12        0.98
  WS02004406           JUNCTION     0.83     0.97     6.80     0  02:11        0.97
  WS02004409           JUNCTION     0.53     0.69     6.46     0  02:13        0.69
  WS02004410           JUNCTION     0.54     0.70     6.42     0  02:13        0.70
  WS02004411           JUNCTION     0.56     0.71     6.39     0  02:12        0.71
  WS02004412           JUNCTION     0.57     0.71     6.35     0  02:13        0.71
  WS02004413           JUNCTION     0.73     0.87     6.34     0  02:13        0.87
  WS02004405           JUNCTION     0.83     0.98     6.83     0  02:11        0.98
  WS02006109           JUNCTION     0.80     1.00     7.61     0  02:10        0.99
  WS02006110           JUNCTION     0.78     0.94     7.52     0  02:12        0.94
  WS02006111           JUNCTION     0.23     0.29     7.00     0  02:11        0.29
  WS02006112           JUNCTION     0.88     1.16     7.05     0  02:15        1.10
  WS02006113           JUNCTION     0.36     0.47     7.36     0  02:11        0.46
  WS02006115           JUNCTION     0.60     0.78     6.92     0  02:10        0.78
  WS02006116           JUNCTION     0.68     0.86     6.90     0  02:10        0.86
  WS02006230           JUNCTION     0.78     1.04     7.79     0  02:10        1.04
  WS02006231           JUNCTION     0.52     0.71     7.83     0  02:10        0.71
  WS02006232           JUNCTION     0.66     0.83     7.87     0  02:10        0.83
  WS02006234           JUNCTION     0.58     0.76     7.92     0  02:51        0.76
  WS02006235           JUNCTION     0.62     0.80     7.96     0  02:51        0.80
  WS02006238           JUNCTION     0.64     0.83     7.97     0  02:51        0.82
  WS02006240           JUNCTION     0.54     0.75     8.04     0  02:51        0.75
  WS02006242           JUNCTION     0.60     0.81     8.08     0  02:51        0.81
  WS02006243           JUNCTION     0.47     0.70     8.12     0  02:51        0.70
  WS02006245           JUNCTION     0.45     0.67     8.16     0  02:51        0.67
  WS02006247           JUNCTION     0.47     0.68     8.18     0  02:51        0.68
  WS02006248           JUNCTION     0.41     0.61     8.20     0  02:50        0.61
  WS02006249           JUNCTION     0.44     0.62     8.22     0  02:50        0.62
  WS02006239           JUNCTION     0.60     0.80     8.01     0  02:51        0.80
  WS02006251           JUNCTION     0.43     0.65     8.32     0  02:50        0.65
  WS02006252           JUNCTION     0.37     0.59     8.83     0  07:47        0.59
  WS02006253           JUNCTION     0.45     0.68     8.33     0  02:50        0.68
  WS02006256           JUNCTION     1.09     1.21     8.14     0  02:10        1.21
  WS02004138           JUNCTION     0.15     0.19     7.44     0  07:43        0.19
  WS02004407           JUNCTION     0.24     0.30     6.62     0  02:12        0.30
  WS02006228           JUNCTION     0.80     1.05     7.70     0  02:10        1.04
  WS02006229           JUNCTION     0.78     1.04     7.73     0  02:10        1.04
  WS02006280           JUNCTION     0.07     0.16     8.43     0  01:50        0.16
  WS02006284           JUNCTION     0.37     0.50     8.90     0  01:50        0.50
  WS02006287           JUNCTION     0.10     0.23     9.19     0  01:50        0.23
  WSF200               JUNCTION     0.23     0.32     5.55     0  02:00        0.32
  HS02004901           JUNCTION     0.13     0.24    10.06     0  01:47        0.24
  HS02004881           JUNCTION     0.01     0.03     9.06     0  01:50        0.03
  HS02004876           JUNCTION     0.05     0.11     9.14     0  01:47        0.11
  HS02004870           JUNCTION     0.02     0.05     9.33     0  01:50        0.05
  HS02004862           JUNCTION     0.02     0.05     9.44     0  01:51        0.05
  HS02004856           JUNCTION     0.08     0.11     9.54     0  01:51        0.11
  HS02004852           JUNCTION     0.01     0.03     9.54     0  01:52        0.03
  HS02004848           JUNCTION     0.01     0.03     9.63     0  01:51        0.03
  HS02004842           JUNCTION     0.33     0.36     9.63     0  01:51        0.36
  HS02004837           JUNCTION     0.03     0.05     9.63     0  01:51        0.05
  HS02004830           JUNCTION     0.04     0.07     9.54     0  01:51        0.07
  HS02004824           JUNCTION     0.02     0.05     9.45     0  02:16        0.05
  HS02004817           JUNCTION     0.44     0.54     9.39     0  01:51        0.54
  HS02004807           JUNCTION     0.13     0.22     9.39     0  01:51        0.22
  HS02004802           JUNCTION     0.16     0.25     9.38     0  01:51        0.25
  HS02004799           JUNCTION     0.12     0.28     9.49     0  01:48        0.28
  HS02004792           JUNCTION     0.03     0.11     9.63     0  01:47        0.11
  HS02004788           JUNCTION     0.03     0.08     9.98     0  01:48        0.08
  HS02004785           JUNCTION     0.05     0.14    10.04     0  01:48        0.14
  HS02004777           JUNCTION     0.15     0.26    10.06     0  01:47        0.26
  HS02004770           JUNCTION     0.12     0.23    10.06     0  01:47        0.23
  HS02004480           JUNCTION     0.08     0.21     9.46     0  01:48        0.21
  HS02004479           JUNCTION     0.12     0.25     9.46     0  01:48        0.25
  HS02004478           JUNCTION     0.06     0.14     9.37     0  01:49        0.14
  YS02001745           JUNCTION     0.66     0.87     8.39     0  03:18        0.87
  YS02001748           JUNCTION     1.06     1.70     8.78     0  02:39        1.31
  YS02001751           JUNCTION     1.25     2.20     9.08     0  02:18        1.52
  YS02001754           JUNCTION     1.50     2.11     8.72     0  02:19        1.80
  YS02001762           JUNCTION     1.71     2.03     8.43     0  03:11        2.02
  YS02001765           JUNCTION     1.66     1.97     8.42     0  03:02        1.96
  YS02001767           JUNCTION     1.62     1.93     8.42     0  03:11        1.92
  YS02001770           JUNCTION     1.62     1.91     8.41     0  02:18        1.90
  YS02001774           JUNCTION     1.69     1.99     8.41     0  02:18        1.96
  YS02001779           JUNCTION     1.43     1.68     8.37     0  02:17        1.68
  YS02001882           JUNCTION     0.42     0.85     7.56     0  03:02        0.84
  YS02001884           JUNCTION     0.52     0.95     7.56     0  03:02        0.94
  YS02001759           JUNCTION     1.74     2.06     8.43     0  03:17        2.05
  YS02001887           JUNCTION     0.59     1.02     7.56     0  03:03        1.02
  YS02001890           JUNCTION     0.62     1.06     7.56     0  03:02        1.05
  YS02001898           JUNCTION     0.39     0.81     7.55     0  03:03        0.81
  YS02001901           JUNCTION     0.51     0.94     7.55     0  03:03        0.94
  YS02001904           JUNCTION     0.49     0.92     7.55     0  03:02        0.91
  YS02001907           JUNCTION     0.82     1.26     7.55     0  03:02        1.26
  YS02001910           JUNCTION     0.61     1.05     7.56     0  03:01        1.05
  YS02001915           JUNCTION     0.41     0.83     7.55     0  03:03        0.83
  YS02001918           JUNCTION     0.16     0.48     7.55     0  03:03        0.48
  YS02001619           JUNCTION     1.21     1.61     8.54     0  02:30        1.51
  YS02001629           JUNCTION     1.57     1.85     8.40     0  02:33        1.85
  YS02001641           JUNCTION     1.67     1.98     8.42     0  02:40        1.93
  YS02001644           JUNCTION     1.68     1.92     8.35     0  02:40        1.92
  YS02001652           JUNCTION     1.52     2.16     8.76     0  02:22        1.92
  YS02001655           JUNCTION     1.28     2.20     9.05     0  02:14        1.88
  YS02001920           JUNCTION     0.26     0.55     7.55     0  03:02        0.54
  YS02001923           JUNCTION     0.11     0.29     7.55     0  03:03        0.29
  YS02001926           JUNCTION     0.20     0.26     7.71     0  03:01        0.26
  YS02001929           JUNCTION     0.10     0.14     7.84     0  03:01        0.14
  YS02001658           JUNCTION     1.00     2.30     9.44     0  02:30        1.87
  YS02001661           JUNCTION     0.77     2.46     9.86     0  02:53        1.92
  YS02001664           JUNCTION     0.32     0.57     8.50     0  03:48        0.56
  YS02001622           JUNCTION     1.24     1.62     8.52     0  02:30        1.52
  YS02001633           JUNCTION     1.66     2.00     8.45     0  02:40        1.93
  YS02001649           JUNCTION     1.71     2.05     8.44     0  02:51        2.05
  YS02001757           JUNCTION     1.84     2.17     8.43     0  03:14        2.16
  YS02001895           JUNCTION     0.39     0.81     7.55     0  03:02        0.81
  YS02001625           JUNCTION     1.52     1.78     8.38     0  02:33        1.78
  YS02163301           JUNCTION     1.60     1.91     8.43     0  02:40        1.87
  YS02163601           JUNCTION     1.72     2.07     8.46     0  02:40        1.98
  YS02164001           JUNCTION     1.65     2.00     8.46     0  02:40        1.91
  YS02001647           JUNCTION     1.50     1.80     8.41     0  02:56        1.79
  YSB1154              JUNCTION     0.26     0.40     9.46     0  01:48        0.40
  YSB6556              JUNCTION     0.15     0.29     9.46     0  01:48        0.29
  YSB1174              JUNCTION     0.21     0.35     9.46     0  01:49        0.35
  YSB1171              JUNCTION     0.41     0.55     9.46     0  01:48        0.55
  YS02006553           JUNCTION     0.82     1.26     7.54     0  03:02        1.25
  YS02006561           JUNCTION     0.23     0.56     7.22     0  03:02        0.56
  YS02006556           JUNCTION     0.79     1.21     7.52     0  03:02        1.21
  YS02006558           JUNCTION     0.84     1.25     7.52     0  03:02        1.25
  YS02001783           JUNCTION     0.44     1.92     8.07     0  02:29        1.07
  YS02001784           JUNCTION     0.47     1.94     8.00     0  02:29        1.07
  YS02001786           JUNCTION     0.42     2.19     8.22     0  02:29        0.98
  YS02001788           JUNCTION     0.35     2.28     8.26     0  02:29        0.93
  YS02001790           JUNCTION     0.46     1.96     7.60     0  02:28        1.16
  YS02001791           JUNCTION     0.42     1.65     7.12     0  02:29        1.22
  YS02001793           JUNCTION     0.55     2.60     7.43     0  02:26        1.79
  WS02004139           JUNCTION     0.61     0.72     5.63     0  07:50        0.72
  WSC                  OUTFALL      0.32     0.37     1.04     0  01:59        0.37
  3                    OUTFALL      0.12     0.21     6.21     0  02:10        0.21
  4                    OUTFALL      0.02     0.12     7.12     0  02:50        0.12
  5                    OUTFALL      0.00     0.00     5.00     0  00:00        0.00
  JK-storage           STORAGE      1.99     5.80     6.60     0  02:29        5.80
  CC-storage           STORAGE      1.06     1.38     8.38     0  03:14        1.38
  XR-storage           STORAGE      6.86     7.72     5.72     0  02:36        7.72
  
  
  *******************
  Node Inflow Summary
  *******************
  
  -------------------------------------------------------------------------------------------------
                                  Maximum  Maximum                  Lateral       Total        Flow
                                  Lateral    Total  Time of Max      Inflow      Inflow     Balance
                                   Inflow   Inflow   Occurrence      Volume      Volume       Error
  Node                 Type           LPS      LPS  days hr:min    10^6 ltr    10^6 ltr     Percent
  -------------------------------------------------------------------------------------------------
  WS02001211           JUNCTION      7.35   386.74     0  07:50       0.207        7.26       0.574
  WS02001212           JUNCTION      0.00   385.65     0  07:50           0        7.22       0.332
  WS02001213           JUNCTION      0.00   384.68     0  07:50           0         7.2       0.387
  WS02003069           JUNCTION      0.32   847.15     0  01:57     0.00902        16.1       0.227
  WS02003072           JUNCTION      0.00   847.02     0  01:57           0        16.1       0.267
  WS02003073           JUNCTION      1.82   848.90     0  01:58      0.0514        16.1       0.306
  WS02003060           JUNCTION     16.53   846.83     0  01:56       0.466        16.2       0.214
  WS02003066           JUNCTION      0.00   568.04     0  02:14           0        8.58       0.058
  WS02003059           JUNCTION      0.00   383.20     0  07:50           0        7.17       0.584
  WS02003067           JUNCTION      0.00   567.96     0  02:13           0        8.59       0.119
  WS02004401           JUNCTION      0.00   569.71     0  02:09           0        8.85       0.272
  WS02004402           JUNCTION      0.00   569.06     0  02:11           0        8.83       0.253
  WS02004403           JUNCTION      0.00   569.23     0  02:11           0        8.81       0.228
  WS02004404           JUNCTION      0.16   568.91     0  02:11     0.00457        8.79       0.169
  WS02004406           JUNCTION      0.00   569.03     0  02:12           0        8.76       0.410
  WS02004409           JUNCTION      0.00   568.50     0  02:12           0        8.71       0.221
  WS02004410           JUNCTION      0.00   568.29     0  02:12           0        8.69       0.245
  WS02004411           JUNCTION      0.00   568.14     0  02:13           0        8.67       0.248
  WS02004412           JUNCTION      0.00   568.20     0  02:13           0        8.65       0.263
  WS02004413           JUNCTION      0.00   568.03     0  02:13           0        8.63       0.381
  WS02004405           JUNCTION      0.04   568.83     0  02:12     0.00107        8.78       0.252
  WS02006109           JUNCTION      1.23   560.10     0  02:11      0.0347        8.94       0.225
  WS02006110           JUNCTION      0.00   560.09     0  02:11           0        8.92       0.256
  WS02006111           JUNCTION      0.00   584.35     0  02:11           0        8.88       0.061
  WS02006112           JUNCTION      9.91   575.70     0  02:11       0.054        8.93       0.366
  WS02006113           JUNCTION      0.00   561.25     0  02:11           0        8.89       0.130
  WS02006115           JUNCTION      0.00   586.27     0  02:10           0         8.9       0.265
  WS02006116           JUNCTION      0.00   571.58     0  02:10           0        8.88       0.248
  WS02006230           JUNCTION     10.28   396.54     0  06:26        0.29         7.3       0.206
  WS02006231           JUNCTION      0.00   388.11     0  05:32           0        7.02       0.193
  WS02006232           JUNCTION      0.00   388.16     0  05:32           0        7.04       0.251
  WS02006234           JUNCTION      0.00   389.68     0  05:32           0        7.05       0.146
  WS02006235           JUNCTION      0.00   389.82     0  05:31           0        7.09       0.175
  WS02006238           JUNCTION      0.00   345.71     0  06:40           0        4.93       0.196
  WS02006240           JUNCTION      0.00   340.34     0  06:40           0        4.93       0.322
  WS02006242           JUNCTION      0.00   337.70     0  06:41           0        4.94       0.378
  WS02006243           JUNCTION      0.00   334.40     0  03:21           0        4.93      -0.035
  WS02006245           JUNCTION      0.00   338.22     0  03:20           0        4.95       0.307
  WS02006247           JUNCTION      0.00   346.63     0  03:20           0        4.96       0.213
  WS02006248           JUNCTION      0.00   352.95     0  03:20           0        4.96       0.146
  WS02006249           JUNCTION      0.00   431.45     0  02:50           0        5.38       0.286
  WS02006239           JUNCTION      0.00   345.96     0  06:40           0        4.93       0.308
  WS02006251           JUNCTION      0.08   432.03     0  02:50     0.00217        5.43       0.260
  WS02006252           JUNCTION      0.00   400.00     0  06:20           0        5.09       0.010
  WS02006253           JUNCTION      1.33    51.15     0  01:49     0.00698       0.342       2.491
  WS02006256           JUNCTION      0.00   600.00     0  03:30           0        7.42       0.039
  WS02004138           JUNCTION      0.00   380.00     0  07:40           0         7.1       0.086
  WS02004407           JUNCTION      0.00   568.64     0  02:12           0        8.72       0.100
  WS02006228           JUNCTION      0.00   558.87     0  02:11           0        8.92       0.170
  WS02006229           JUNCTION      0.00   558.58     0  02:10           0        8.93       0.148
  WS02006280           JUNCTION      0.00   250.77     0  01:50           0        1.65       0.004
  WS02006284           JUNCTION      0.10   250.80     0  01:50      0.0027        1.65       0.062
  WS02006287           JUNCTION      0.00   250.71     0  01:50           0        1.65       0.044
  WSF200               JUNCTION      0.00   568.07     0  02:14           0        8.58       0.056
  HS02004901           JUNCTION     12.01    12.01     0  01:45      0.0649      0.0651       2.778
  HS02004881           JUNCTION      5.13    49.92     0  01:49      0.0283       0.303       0.093
  HS02004876           JUNCTION      9.09    44.88     0  01:50      0.0545       0.275       0.197
  HS02004870           JUNCTION      9.46    35.90     0  01:50      0.0537       0.221       0.049
  HS02004862           JUNCTION      8.62    26.77     0  01:51      0.0595       0.167       0.103
  HS02004856           JUNCTION      7.08    18.19     0  01:50      0.0404       0.109       1.337
  HS02004852           JUNCTION      0.00    11.37     0  01:51           0      0.0688       0.079
  HS02004848           JUNCTION     19.27    19.27     0  02:15       0.129       0.129       0.035
  HS02004842           JUNCTION      0.00     7.96     0  02:16           0      0.0736      21.477
  HS02004837           JUNCTION     22.22    28.76     0  01:50       0.273       0.333       0.244
  HS02004830           JUNCTION      0.15    28.90     0  01:51     0.00423       0.323       0.383
  HS02004824           JUNCTION     23.98    52.78     0  02:16       0.169       0.492       0.110
  HS02004817           JUNCTION      0.60    53.38     0  02:16      0.0169       0.508       3.394
  HS02004807           JUNCTION     17.56    68.44     0  02:16      0.0987        0.59       0.739
  HS02004802           JUNCTION      0.00    68.45     0  02:16           0       0.587       0.680
  HS02004799           JUNCTION     13.93   155.61     0  01:47      0.0799       0.915       0.289
  HS02004792           JUNCTION     59.81   141.74     0  01:47       0.341       0.835       0.049
  HS02004788           JUNCTION     20.81    82.40     0  01:48       0.158       0.496       0.078
  HS02004785           JUNCTION      0.15    61.69     0  01:47     0.00423       0.339       0.145
  HS02004777           JUNCTION      0.03    61.69     0  01:46    0.000846        0.34       1.552
  HS02004770           JUNCTION     50.05    61.90     0  01:46       0.278       0.341       0.915
  HS02004480           JUNCTION      0.00   184.56     0  01:48           0        1.08       0.104
  HS02004479           JUNCTION      0.00    29.02     0  01:50           0       0.176       0.417
  HS02004478           JUNCTION      0.00   250.68     0  01:49           0        1.65       0.021
  YS02001745           JUNCTION    196.14   318.04     0  02:37        1.98        1.99       0.440
  YS02001748           JUNCTION      0.04   482.93     0  02:37     0.00127        1.98       1.167
  YS02001751           JUNCTION      0.01   437.80     0  02:18     0.00031        1.95       1.210
  YS02001754           JUNCTION      0.26   219.84     0  02:29     0.00733        1.93       1.254
  YS02001762           JUNCTION      0.00   236.90     0  02:55           0        1.86       1.136
  YS02001765           JUNCTION      0.00   236.71     0  02:55           0        1.86       1.311
  YS02001767           JUNCTION      0.54   236.56     0  02:56      0.0151        1.88       1.918
  YS02001770           JUNCTION    237.12   237.12     0  03:00        2.24        2.25       1.399
  YS02001774           JUNCTION      0.00   200.06     0  03:18           0       0.367       7.335
  YS02001779           JUNCTION      0.01   200.07     0  03:18    0.000141       0.331       4.694
  YS02001882           JUNCTION      0.00    12.22     0  02:13           0      0.0183      12.871
  YS02001884           JUNCTION      0.00    19.50     0  02:13           0      0.0525      12.166
  YS02001759           JUNCTION    224.87   460.28     0  02:56        2.06        3.89       0.583
  YS02001887           JUNCTION    272.70   278.13     0  02:32        2.39        2.42       0.333
  YS02001890           JUNCTION      0.00   270.39     0  02:32           0        2.38       0.370
  YS02001898           JUNCTION      0.00   271.21     0  02:32           0        2.36       0.115
  YS02001901           JUNCTION      0.00   266.74     0  03:01           0        2.36       0.278
  YS02001904           JUNCTION      0.00   266.51     0  03:00           0        2.36       0.252
  YS02001907           JUNCTION      0.00   526.72     0  03:06           0        5.21       0.449
  YS02001910           JUNCTION      0.00   267.86     0  03:08           0        2.86       0.393
  YS02001915           JUNCTION    170.88   263.24     0  03:05        1.67        2.86       0.196
  YS02001918           JUNCTION      0.00   101.14     0  03:11           0         1.2       0.142
  YS02001619           JUNCTION    167.73   167.73     0  03:01        1.65        1.65       0.713
  YS02001629           JUNCTION      0.00   224.09     0  02:20           0        1.57       1.794
  YS02001641           JUNCTION      0.00   352.25     0  03:00           0        3.43       0.614
  YS02001644           JUNCTION    187.26   863.34     0  03:16        1.91        6.88       0.379
  YS02001652           JUNCTION      0.00   269.43     0  02:28           0        1.74       1.343
  YS02001655           JUNCTION      0.15   452.52     0  02:14     0.00434        1.76       1.354
  YS02001920           JUNCTION      2.87    97.94     0  03:03      0.0809         1.2       0.228
  YS02001923           JUNCTION      0.04    91.49     0  03:01     0.00106        1.12       0.042
  YS02001926           JUNCTION      0.05    91.60     0  03:01     0.00147        1.12       0.282
  YS02001929           JUNCTION     91.59    91.59     0  03:01        1.12        1.12       0.041
  YS02001658           JUNCTION      0.00   614.72     0  02:29           0        1.82       1.118
  YS02001661           JUNCTION      0.00   596.50     0  02:51           0        2.55      -0.123
  YS02001664           JUNCTION    199.96   376.10     0  02:52        1.78        2.51       0.149
  YS02001622           JUNCTION      0.00   176.28     0  02:20           0        1.64       1.937
  YS02001633           JUNCTION    191.11   352.06     0  03:01        1.96        3.49       0.917
  YS02001649           JUNCTION      0.00   719.37     0  02:48           0        5.15       0.719
  YS02001757           JUNCTION      0.00  1334.95     0  02:48           0        9.28       0.999
  YS02001895           JUNCTION      0.00   275.46     0  02:32           0        2.37       0.201
  YS02001625           JUNCTION      0.00   224.23     0  02:20           0        1.61       2.463
  YS02163301           JUNCTION      0.00   189.40     0  02:28           0        1.56       1.554
  YS02163601           JUNCTION      0.11   352.04     0  03:01      0.0031        3.45       0.873
  YS02164001           JUNCTION      0.00   352.18     0  03:00           0        3.43       0.580
  YS02001647           JUNCTION      0.00   523.01     0  02:48           0        4.14       0.673
  YSB1154              JUNCTION     16.17    16.17     0  01:48       0.097      0.0978       1.500
  YSB6556              JUNCTION      0.00    16.25     0  01:49           0      0.0986       1.284
  YSB1174              JUNCTION     13.15    13.15     0  01:45      0.0704      0.0709       1.845
  YSB1171              JUNCTION      0.00    29.36     0  01:48           0       0.175       3.756
  YS02006553           JUNCTION      0.00   526.75     0  03:06           0         5.2       0.286
  YS02006561           JUNCTION      0.00   754.20     0  03:03           0        7.33       0.006
  YS02006556           JUNCTION      0.00   526.79     0  03:06           0         5.2       0.212
  YS02006558           JUNCTION    242.14   754.02     0  03:02        2.19        7.37       0.071
  YS02001783           JUNCTION      0.00   753.46     0  03:04           0        7.33       0.030
  YS02001784           JUNCTION      1.06   754.62     0  03:04      0.0299        7.36       0.044
  YS02001786           JUNCTION      0.06   754.56     0  03:03     0.00159        7.36       0.043
  YS02001788           JUNCTION      0.07   754.59     0  03:03       0.002        7.36       0.026
  YS02001790           JUNCTION      0.15   754.85     0  03:04     0.00437        7.36       0.029
  YS02001791           JUNCTION      0.00   754.86     0  03:04           0        7.36       0.015
  YS02001793           JUNCTION      0.00   754.87     0  03:03           0        7.36       0.002
  WS02004139           JUNCTION      0.32   380.32     0  07:43     0.00905         7.1       0.629
  WSC                  OUTFALL       0.00   849.05     0  01:59           0        16.1       0.000
  3                    OUTFALL       0.00   514.06     0  02:10           0        5.22       0.000
  4                    OUTFALL       0.00   148.44     0  02:50           0       0.401       0.000
  5                    OUTFALL       0.00     0.00     0  00:00           0           0       0.000 ltr
  JK-storage           STORAGE       0.00   951.43     0  02:25           0        7.51     -13.077
  CC-storage           STORAGE       0.00  1335.00     0  02:48           0        8.28       0.661
  XR-storage           STORAGE     519.52   519.52     0  03:01        8.98        9.58      -0.001
  
  
  **********************
  Node Surcharge Summary
  **********************
  
  Surcharging occurs when water rises above the top of the highest conduit.
  ---------------------------------------------------------------------
                                               Max. Height   Min. Depth
                                   Hours       Above Crown    Below Rim
  Node                 Type      Surcharged         Meters       Meters
  ---------------------------------------------------------------------
  WS02006109           JUNCTION        2.65          0.175        1.645
  WS02006110           JUNCTION        1.23          0.029        1.821
  WS02006112           JUNCTION        1.31          0.163        1.517
  WS02006232           JUNCTION        2.89          0.132        1.348
  WS02006234           JUNCTION        1.17          0.045        1.195
  WS02006235           JUNCTION        1.90          0.088        1.202
  WS02006238           JUNCTION        2.43          0.106        1.324
  WS02006240           JUNCTION        0.36          0.036        1.354
  WS02006242           JUNCTION        1.79          0.082        0.738
  WS02006239           JUNCTION        1.09          0.056        1.234
  WS02006252           JUNCTION        2.35          0.193        0.907
  WS02006228           JUNCTION        2.42          0.217        1.983
  YS02001748           JUNCTION        5.01          0.620        0.570
  YS02001751           JUNCTION        5.39          1.200        0.000
  YS02001754           JUNCTION        5.68          1.064        0.086
  YS02001762           JUNCTION        5.94          1.027        0.123
  YS02001765           JUNCTION        5.91          0.974        0.126
  YS02001767           JUNCTION        5.89          0.933        0.097
  YS02001770           JUNCTION        5.83          0.883        0.037
  YS02001774           JUNCTION        5.93          0.987        0.063
  YS02001779           JUNCTION        5.65          0.680        0.000
  YS02001759           JUNCTION        5.96          1.064        0.146
  YS02001890           JUNCTION        0.02          0.005        0.755
  YS02001907           JUNCTION        1.23          0.247        0.703
  YS02001910           JUNCTION        0.21          0.051        1.049
  YS02001619           JUNCTION        5.37          0.610        0.000
  YS02001629           JUNCTION        5.39          0.470        0.000
  YS02001641           JUNCTION        5.92          0.983        0.117
  YS02001644           JUNCTION        5.93          0.920        0.000
  YS02001652           JUNCTION        5.70          1.130        0.000
  YS02001655           JUNCTION        5.41          1.200        0.000
  YS02001658           JUNCTION        5.07          1.300        0.000
  YS02001661           JUNCTION        0.18          1.390        0.000
  YS02001622           JUNCTION        5.45          0.620        0.000
  YS02001633           JUNCTION        5.91          0.978        0.082
  YS02001649           JUNCTION        5.94          1.050        0.000
  YS02001757           JUNCTION        6.03          1.172        0.038
  YS02001625           JUNCTION        5.72          0.780        0.000
  YS02163301           JUNCTION        5.88          0.911        0.119
  YS02163601           JUNCTION        5.95          1.066        0.014
  YS02164001           JUNCTION        5.92          0.998        0.102
  YS02001647           JUNCTION        5.71          0.802        0.098
  YS02006553           JUNCTION        1.29          0.258        0.932
  YS02006556           JUNCTION        0.68          0.173        1.177
  YS02006558           JUNCTION        0.60          0.149        1.251
  YS02001783           JUNCTION        0.92          1.124        0.476
  YS02001784           JUNCTION        1.01          1.137        0.353
  YS02001786           JUNCTION        0.93          1.392        0.038
  YS02001788           JUNCTION        0.91          1.480        0.000
  YS02001790           JUNCTION        1.50          1.157        0.000
  YS02001791           JUNCTION        1.60          0.854        1.066
  YS02001793           JUNCTION        1.77          1.599        1.001
  
  
  *********************
  Node Flooding Summary
  *********************
  
  Flooding refers to all water that overflows a node, whether it ponds or not.
  --------------------------------------------------------------------------
                                                             Total   Maximum
                                 Maximum   Time of Max       Flood    Ponded
                        Hours       Rate    Occurrence      Volume     Depth
  Node                 Flooded       LPS   days hr:min    10^6 ltr    Meters
  --------------------------------------------------------------------------
  YS02001751              0.01    160.32      0  02:18       0.000     0.000
  YS02001779              1.98    199.98      0  03:18       0.305     0.000
  YS02001619              0.01     16.29      0  02:35       0.000     0.000
  YS02001629              0.01     32.97      0  02:35       0.000     0.000
  YS02001644              3.11    863.29      0  03:16       4.276     0.000
  YS02001652              0.01     55.89      0  02:22       0.000     0.000
  YS02001655              0.01    234.21      0  02:22       0.001     0.000
  YS02001658              0.01    325.71      0  02:31       0.001     0.000
  YS02001661              0.01    172.19      0  02:56       0.000     0.000
  YS02001622              0.01     31.30      0  02:33       0.000     0.000
  YS02001649              0.06     47.25      0  02:56       0.003     0.000
  YS02001625              0.34     25.30      0  02:38       0.004     0.000
  YS02001788              0.01     36.39      0  02:29       0.000     0.000
  YS02001790              0.01    103.24      0  02:28       0.000     0.000
  JK-storage              1.25    464.59      0  03:50       1.222     0.000
  XR-storage              3.42    417.57      0  03:40       1.719     0.000
  
  
  **********************
  Storage Volume Summary
  **********************
  
  --------------------------------------------------------------------------------------------------
                         Average     Avg  Evap Exfil       Maximum     Max    Time of Max    Maximum
                          Volume    Pcnt  Pcnt  Pcnt        Volume    Pcnt     Occurrence    Outflow
  Storage Unit           1000 m3    Full  Loss  Loss       1000 m3    Full    days hr:min        LPS
  --------------------------------------------------------------------------------------------------
  JK-storage               0.100      34     0     0         0.291     100       0  02:29     600.00
  CC-storage               2.952      19     0     0         3.845      25       0  03:14     400.00
  XR-storage               0.824      89     0     0         0.926     100       0  02:36     380.00
  
  
  ***********************
  Outfall Loading Summary
  ***********************
  
  -----------------------------------------------------------
                         Flow       Avg       Max       Total
                         Freq      Flow      Flow      Volume
  Outfall Node           Pcnt       LPS       LPS    10^6 ltr
  -----------------------------------------------------------
  WSC                  100.00    632.33    849.05      16.065
  3                     88.81    267.50    514.06       5.225
  4                     46.57     35.68    148.44       0.401
  5                      0.00      0.00      0.00       0.000
  -----------------------------------------------------------
  System                58.84    935.51   1342.86      21.691
  
  
  ********************
  Link Flow Summary
  ********************
  
  -----------------------------------------------------------------------------
                                 Maximum  Time of Max   Maximum    Max/    Max/
                                  |Flow|   Occurrence   |Veloc|    Full    Full
  Link                 Type          LPS  days hr:min     m/sec    Flow   Depth
  -----------------------------------------------------------------------------
  WS02003066WSF200     CONDUIT    568.07     0  02:14      2.82    0.10    0.24
  WS02006287WS02006284 CONDUIT    250.70     0  01:50      1.73    0.12    0.24
  WS02006284WS02006280 CONDUIT    250.77     0  01:50      1.97    0.11    0.22
  WS02006280WS02006229 CONDUIT    250.78     0  01:50      3.17    0.05    0.16
  WS02006229WS02006228 CONDUIT    558.87     0  02:11      1.11    1.85    1.00
  WS02006256WS02006235 CONDUIT    158.11     0  00:13      2.30    1.67    1.00
  WS02006253WS02006251 CONDUIT     50.57     0  01:49      0.51    0.15    0.95
  WS02006252WS02006251 CONDUIT    400.50     0  07:40      3.19    1.47    1.00
  WS02006251WS02006249 CONDUIT    431.45     0  02:50      1.18    1.24    0.91
  WS02006249WS02006248 CONDUIT    352.95     0  03:20      1.15    1.93    0.87
  WS02006248WS02006247 CONDUIT    346.63     0  03:20      1.11    0.75    0.92
  WS02006247WS02006245 CONDUIT    338.22     0  03:20      1.06    2.68    0.96
  WS02006245WS02006243 CONDUIT    334.40     0  03:21      1.06    0.99    0.98
  WS02006243WS02006242 CONDUIT    337.70     0  06:41      0.92    0.72    1.00
  WS02006242WS02006240 CONDUIT    340.34     0  06:40      0.90    1.35    1.00
  WS02006240WS02006239 CONDUIT    345.96     0  06:40      0.95    1.09    1.00
  WS02006239WS02006238 CONDUIT    345.71     0  06:40      0.91    1.11    1.00
  WS02006238WS02006235 CONDUIT    345.64     0  06:40      0.91    0.77    1.00
  WS02006235WS02006234 CONDUIT    389.68     0  05:32      1.04    4.11    1.00
  WS02006234WS02006232 CONDUIT    388.16     0  05:32      1.02    0.79    1.00
  WS02006232WS02006231 CONDUIT    388.11     0  05:32      1.06    0.81    1.00
  WS02006231WS02006230 CONDUIT    386.26     0  06:26      1.35    5.86    0.97
  WS02006230WS02006229 CONDUIT    396.61     0  06:26      1.03    8.83    1.00
  WS02006228WS02006109 CONDUIT    558.87     0  02:11      1.11    2.44    1.00
  WS02006116WS02004401 CONDUIT    569.71     0  02:09      0.79    0.79    0.87
  WS02006115WS02006116 CONDUIT    571.58     0  02:10      0.86    0.73    0.79
  WS02006113WS02006111 CONDUIT    584.35     0  02:11      2.50    0.70    0.47
  WS02006112WS02006115 CONDUIT    586.27     0  02:10      0.80    0.35    0.89
  WS02006111WS02006112 CONDUIT    567.45     0  02:11      1.57    0.27    0.68
  WS02006110WS02006113 CONDUIT    561.25     0  02:11      1.32    0.51    0.79
  WS02006109WS02006110 CONDUIT    560.09     0  02:11      1.11    1.08    1.00
  WS02004411WS02004412 CONDUIT    568.20     0  02:13      0.95    0.81    0.71
  WS02004401WS02004402 CONDUIT    569.06     0  02:11      0.77    0.68    0.89
  WS02004413WS02003067 CONDUIT    567.96     0  02:13      1.15    0.24    0.60
  WS02004412WS02004413 CONDUIT    568.03     0  02:13      0.85    0.38    0.79
  WS02004410WS02004411 CONDUIT    568.14     0  02:13      0.96    0.78    0.71
  WS02004409WS02004410 CONDUIT    568.29     0  02:12      0.98    0.73    0.70
  WS02004407WS02004409 CONDUIT    568.50     0  02:12      1.48    0.20    0.50
  WS02004406WS02004407 CONDUIT    568.64     0  02:12      1.07    0.25    0.64
  WS02004405WS02004406 CONDUIT    569.03     0  02:12      0.73    1.12    0.97
  WS02004404WS02004405 CONDUIT    568.79     0  02:12      0.84    5.57    0.98
  WS02004403WS02004404 CONDUIT    568.74     0  02:11      0.74    0.41    0.95
  WS02004402WS02004403 CONDUIT    569.23     0  02:11      0.76    0.82    0.91
  WS02004139WS02001211 CONDUIT    379.39     0  07:50      0.81    0.48    0.58
  WS02004138WS02004139 CONDUIT    380.00     0  07:43      3.34    0.08    0.43
  WS02003067WS02003066 CONDUIT    568.04     0  02:14      1.25    0.18    0.42
  WS02001213WS02003059 CONDUIT    383.20     0  07:50      0.78    0.63    0.74
  WS02001212WS02001213 CONDUIT    384.68     0  07:50      1.31    0.59    0.44
  WS02001211WS02001212 CONDUIT    385.65     0  07:50      0.77    0.29    0.63
  WS02003072WS02003073 CONDUIT    847.08     0  01:58      1.67    1.83    0.46
  WS02003069WS02003072 CONDUIT    847.02     0  01:57      1.57    0.41    0.48
  WS02003060WS02003069 CONDUIT    846.83     0  01:57      1.82    0.33    0.43
  WS02003059WS02003060 CONDUIT    381.23     0  07:50      0.93    0.25    0.62
  HS02004901HS02004770 CONDUIT     11.86     0  01:47      0.05    0.04    0.34
  HS02004876HS02004881 CONDUIT     44.96     0  01:50      0.68    0.48    0.09
  HS02004870HS02004876 CONDUIT     35.89     0  01:50      0.47    0.02    0.11
  HS02004842HS02004848 CONDUIT      7.96     0  02:16      0.04    0.00    0.28
  HS02004837HS02004842 CONDUIT      8.06     0  02:20      0.42    0.00    0.30
  HS02004830HS02004837 CONDUIT     28.75     0  01:51      0.48    0.03    0.09
  HS02004824HS02004830 CONDUIT     28.90     0  01:52      0.51    0.04    0.08
  HS02004817HS02004824 CONDUIT     52.78     0  02:16      0.18    0.02    0.42
  HS02004770HS02004777 CONDUIT     61.66     0  01:46      0.25    0.11    0.35
  HS02004799HS02004480 CONDUIT    155.55     0  01:47      0.65    0.20    0.34
  HS02004792HS02004799 CONDUIT    141.71     0  01:47      0.74    0.09    0.27
  HS02004788HS02004792 CONDUIT     82.36     0  01:48      0.88    0.05    0.13
  HS02004785HS02004788 CONDUIT     61.65     0  01:48      0.55    0.46    0.16
  HS02004777HS02004785 CONDUIT     61.54     0  01:47      0.30    0.08    0.29
  HS02004480HS02004478 CONDUIT    184.33     0  01:49      1.04    0.78    0.25
  HS02004479HS02004480 CONDUIT     29.25     0  01:51      0.28    0.03    0.33
  HS02004862HS02004870 CONDUIT     26.75     0  01:51      0.52    0.03    0.07
  HS02004848HS02004852 CONDUIT     11.37     0  01:51      0.35    0.01    0.05
  HS02004856HS02004862 CONDUIT     18.17     0  01:51      0.38    0.02    0.07
  HS02004852HS02004856 CONDUIT     11.35     0  01:52      0.16    0.01    0.10
  HS02004802HS02004478 CONDUIT     68.53     0  02:17      0.36    0.06    0.28
  HS02004478WS02006287 CONDUIT    250.71     0  01:50      1.43    0.07    0.19
  HS02004817HS02004807 CONDUIT     53.46     0  02:17      0.14    0.03    0.54
  HS02004807HS02004802 CONDUIT     68.45     0  02:16      0.30    0.13    0.33
  YS02001759YS02001757 CONDUIT    460.44     0  02:56      0.59    0.33    1.00
  YS02001762YS02001759 CONDUIT    237.01     0  02:55      0.30    0.27    1.00
  YS02001765YS02001762 CONDUIT    236.90     0  02:55      0.30    0.22    1.00
  YS02001770YS02001767 CONDUIT    236.03     0  02:56      0.38    0.93    1.00
  YS02001774YS02001770 CONDUIT    200.06     0  03:18      0.25    0.13    1.00
  YS02001779YS02001774 CONDUIT    200.06     0  03:18      0.25    0.10    1.00
  YS02001649YS02001757 CONDUIT    719.22     0  02:48      0.92    0.44    1.00
  YS02001767YS02001765 CONDUIT    236.71     0  02:55      0.35    0.30    1.00
  YS02006561YS02001783 CONDUIT    753.46     0  03:04      2.10    0.39    0.85
  YS02001783YS02001784 CONDUIT    753.56     0  03:04      1.60    1.04    1.00
  YS02001784YS02001785 CONDUIT    754.50     0  03:03      1.72    1.76    1.00
  YS02001788YS02001790 CONDUIT    754.70     0  03:04      2.26    0.56    1.00
  YS02001790YS02001791 CONDUIT    754.86     0  03:04      2.74    0.82    1.00
  YS02001791YS02001793 CONDUIT    754.87     0  03:03      5.53    0.32    1.00
  YS02001910YS02001907 CONDUIT    268.99     0  03:10      0.49    0.15    1.00
  YS02001786YS02001788 CONDUIT    754.52     0  03:03      2.17    1.45    1.00
  YS02001915YS02001910 CONDUIT    267.86     0  03:08      0.56    0.13    0.92
  YS02001918YS02001915 CONDUIT    108.93     0  03:15      0.44    0.06    0.66
  YS02001923YS02001920 CONDUIT     95.07     0  03:03      0.64    0.04    0.42
  YS02001926YS02001923 CONDUIT     91.45     0  03:01      0.74    0.13    0.21
  YS02001929YS02001926 CONDUIT     91.54     0  03:01      0.81    0.04    0.20
  YS02001920YS02001918 CONDUIT    101.14     0  03:11      0.63    0.10    0.51
  YS02001629YS02163301 CONDUIT    189.40     0  02:28      0.24    0.23    1.00
  YS02001619YS02001622 CONDUIT    176.28     0  02:20      0.65    0.26    1.00
  YS02001622YS02001625 CONDUIT    224.23     0  02:20      0.32    0.12    1.00
  YS02001625YS02001629 CONDUIT    224.09     0  02:20      0.29    0.11    1.00
  YS02163301YS02001633 CONDUIT    188.81     0  02:28      0.24    0.18    1.00
  YS02163601YS02164001 CONDUIT    352.18     0  03:00      0.45    0.31    1.00
  YS02164001YS02001641 CONDUIT    352.25     0  03:00      0.45    0.48    1.00
  YS02001641YS02001644 CONDUIT    352.15     0  03:00      0.45    1.14    1.00
  YS02001647YS02001649 CONDUIT    523.20     0  02:48      0.67    0.28    1.00
  YS02006553YS02006556 CONDUIT    526.79     0  03:06      0.67    0.45    1.00
  YS02006556YS02006558 CONDUIT    526.85     0  03:06      0.67    0.42    1.00
  YSB6556YSB1171       CONDUIT     16.52     0  01:50      0.07    0.02    0.60
  YS02001907YS02006553 CONDUIT    526.75     0  03:06      0.59    0.62    1.00
  YS02006558YS02006561 CONDUIT    754.20     0  03:03      3.20    1.67    0.97
  YS02001633YS02163601 CONDUIT    351.93     0  03:01      0.45    0.37    1.00
  YS02001644YS02001647 CONDUIT    523.01     0  02:48      0.67    0.31    1.00
  YS02001745YS02001748 CONDUIT    482.89     0  02:37      1.51    0.19    0.93
  YS02001748YS02001751 CONDUIT    437.79     0  02:18      1.12    0.22    1.00
  YS02001751YS02001754 CONDUIT    219.58     0  02:29      0.97    0.11    1.00
  YS02001754YS02001757 CONDUIT    221.60     0  02:19      0.33    0.09    1.00
  YS02001882YS02001884 CONDUIT     14.62     0  02:32      0.12    0.02    0.86
  YS02001884YS02001887 CONDUIT     20.00     0  02:32      0.09    0.03    0.96
  YS02001890YS02001895 CONDUIT    275.46     0  02:32      0.44    0.13    0.90
  YS02001895YS02001898 CONDUIT    271.21     0  02:32      0.55    0.47    0.79
  YS02001898YS02001901 CONDUIT    266.74     0  03:01      0.48    0.17    0.88
  YS02001901YS02001904 CONDUIT    266.51     0  03:00      0.44    0.41    0.93
  YS02001904YS02001907 CONDUIT    270.92     0  02:18      0.38    0.09    0.96
  YS02001887YS02001890 CONDUIT    270.39     0  02:32      0.39    0.46    1.00
  YS02001652YS02001649 CONDUIT    270.01     0  02:28      0.58    0.13    1.00
  YS02001655YS02001652 CONDUIT    269.43     0  02:28      1.05    0.13    1.00
  YS02001658YS02001655 CONDUIT    452.36     0  02:14      1.29    0.19    1.00
  YS02001661YS02001658 CONDUIT    614.72     0  02:29      1.59    0.24    1.00
  YS02001664YS02001661 CONDUIT    596.50     0  02:51      1.47    0.19    0.71
  YSB1154YSB6556       CONDUIT     16.25     0  01:49      0.16    0.03    0.49
  YSB1174YSB1171       CONDUIT     13.26     0  01:45      0.06    0.02    0.61
  YSB1171HS02004479    CONDUIT     29.02     0  01:50      0.54    0.02    0.47
  HS02004881HS02006253 CONDUIT     49.92     0  01:50      1.76    0.01    0.26
  YS02001793JiankangQianchi CONDUIT    951.43     0  02:25     13.26    0.08    1.00
  YS02001757CaochengTiaoxuchi CONDUIT   1335.00     0  02:48      2.16    0.59    1.00
  WSF200WS02003060     CONDUIT    568.15     0  02:14      1.90    0.13    0.33
  1                    CONDUIT    849.05     0  01:59      3.18    0.30    0.37
  2                    CONDUIT    148.44     0  02:50      5.40    0.36    0.41
  3                    CONDUIT    514.06     0  02:10      9.84    0.82    0.69
  4                    CONDUIT      0.00     0  00:00      0.00    0.00    0.00
  CC-Pump-1            PUMP       200.00     0  02:20              1.00
  CC-Pump-2            PUMP       200.00     0  03:20              1.00
  JK-Pump-1            PUMP       300.00     0  01:47              1.00
  JK-Pump-2            PUMP       300.00     0  02:10              1.00
  XR-Pump-1            PUMP        95.00     0  00:00              1.00
  XR-Pump-2            PUMP        95.00     0  00:00              1.00
  XR-Pump-3            PUMP        95.00     0  00:00              1.00
  XR-Pump-4            PUMP        95.00     0  00:30              1.00
  
  
  ***************************
  Flow Classification Summary
  ***************************
  
  -------------------------------------------------------------------------------------
                      Adjusted    ---------- Fraction of Time in Flow Class ---------- 
                       /Actual         Up    Down  Sub   Sup   Up    Down  Norm  Inlet 
  Conduit               Length    Dry  Dry   Dry   Crit  Crit  Crit  Crit  Ltd   Ctrl  
  -------------------------------------------------------------------------------------
  WS02003066WSF200        1.00   0.04  0.01  0.00  0.00  0.94  0.00  0.00  0.60  0.00
  WS02006287WS02006284    1.00   0.03  0.01  0.00  0.59  0.37  0.00  0.00  0.70  0.00
  WS02006284WS02006280    1.00   0.04  0.00  0.00  0.00  0.00  0.00  0.96  0.00  0.00
  WS02006280WS02006229    1.00   0.04  0.00  0.00  0.00  0.00  0.00  0.96  0.00  0.00
  WS02006229WS02006228    1.00   0.00  0.00  0.00  1.00  0.00  0.00  0.00  0.00  0.00
  WS02006256WS02006235    1.00   0.00  0.00  0.00  0.99  0.00  0.00  0.00  0.00  0.00
  WS02006253WS02006251    1.00   0.02  0.01  0.00  0.96  0.00  0.00  0.00  0.00  0.00
  WS02006252WS02006251    1.00   0.06  0.00  0.00  0.00  0.00  0.94  0.00  0.00  0.00
  WS02006251WS02006249    1.00   0.00  0.00  0.00  1.00  0.00  0.00  0.00  0.19  0.00
  WS02006249WS02006248    1.00   0.00  0.00  0.00  0.93  0.00  0.07  0.00  0.00  0.00
  WS02006248WS02006247    1.00   0.00  0.00  0.00  0.98  0.00  0.00  0.02  0.07  0.00
  WS02006247WS02006245    1.00   0.00  0.00  0.00  0.98  0.00  0.00  0.02  0.00  0.00
  WS02006245WS02006243    1.00   0.01  0.00  0.00  0.97  0.00  0.00  0.03  0.01  0.00
  WS02006243WS02006242    1.00   0.01  0.00  0.00  0.99  0.00  0.00  0.00  0.14  0.00
  WS02006242WS02006240    1.00   0.00  0.00  0.00  0.99  0.00  0.00  0.00  0.00  0.00
  WS02006240WS02006239    1.00   0.00  0.00  0.00  0.98  0.00  0.00  0.02  0.01  0.00
  WS02006239WS02006238    1.00   0.00  0.00  0.00  1.00  0.00  0.00  0.00  0.00  0.00
  WS02006238WS02006235    1.00   0.00  0.00  0.00  1.00  0.00  0.00  0.00  0.00  0.00
  WS02006235WS02006234    1.00   0.00  0.00  0.00  0.97  0.00  0.02  0.00  0.00  0.00
  WS02006234WS02006232    1.00   0.00  0.00  0.00  1.00  0.00  0.00  0.00  0.00  0.00
  WS02006232WS02006231    1.00   0.00  0.00  0.00  0.99  0.00  0.00  0.00  0.00  0.00
  WS02006231WS02006230    1.00   0.00  0.00  0.00  0.69  0.00  0.30  0.00  0.00  0.00
  WS02006230WS02006229    1.00   0.00  0.00  0.00  0.99  0.00  0.00  0.01  0.00  0.00
  WS02006228WS02006109    1.00   0.00  0.00  0.00  1.00  0.00  0.00  0.00  0.00  0.00
  WS02006116WS02004401    1.00   0.02  0.00  0.00  0.98  0.00  0.00  0.00  0.00  0.00
  WS02006115WS02006116    1.00   0.02  0.00  0.00  0.97  0.00  0.00  0.01  0.00  0.00
  WS02006113WS02006111    1.00   0.01  0.00  0.00  0.00  0.98  0.00  0.00  0.10  0.00
  WS02006112WS02006115    1.00   0.02  0.00  0.00  0.98  0.00  0.00  0.00  0.00  0.00
  WS02006111WS02006112    1.00   0.02  0.00  0.00  0.98  0.00  0.00  0.00  0.96  0.00
  WS02006110WS02006113    1.00   0.00  0.01  0.00  0.99  0.00  0.00  0.00  0.00  0.00
  WS02006109WS02006110    1.00   0.00  0.00  0.00  1.00  0.00  0.00  0.00  0.00  0.00
  WS02004411WS02004412    1.00   0.03  0.00  0.00  0.97  0.00  0.00  0.00  0.00  0.00
  WS02004401WS02004402    1.00   0.02  0.00  0.00  0.98  0.00  0.00  0.00  0.00  0.00
  WS02004413WS02003067    1.00   0.03  0.01  0.00  0.00  0.00  0.95  0.00  0.00  0.00
  WS02004412WS02004413    1.00   0.03  0.00  0.00  0.97  0.00  0.00  0.00  0.03  0.00
  WS02004410WS02004411    1.00   0.03  0.00  0.00  0.97  0.00  0.00  0.00  0.02  0.00
  WS02004409WS02004410    1.00   0.03  0.00  0.00  0.97  0.00  0.00  0.00  0.00  0.00
  WS02004407WS02004409    1.00   0.03  0.00  0.00  0.97  0.00  0.00  0.00  0.87  0.00
  WS02004406WS02004407    1.00   0.00  0.03  0.00  0.97  0.00  0.00  0.00  0.00  0.00
  WS02004405WS02004406    1.00   0.00  0.00  0.00  1.00  0.00  0.00  0.00  0.03  0.00
  WS02004404WS02004405    1.00   0.00  0.00  0.00  1.00  0.00  0.00  0.00  0.00  0.00
  WS02004403WS02004404    1.00   0.00  0.02  0.00  0.98  0.00  0.00  0.00  0.01  0.00
  WS02004402WS02004403    1.00   0.02  0.00  0.00  0.98  0.00  0.00  0.00  0.00  0.00
  WS02004139WS02001211    1.00   0.00  0.00  0.00  1.00  0.00  0.00  0.00  0.00  0.00
  WS02004138WS02004139    1.00   0.00  0.00  0.00  1.00  0.00  0.00  0.00  1.00  0.00
  WS02003067WS02003066    1.00   0.05  0.01  0.00  0.95  0.00  0.00  0.00  0.00  0.00
  WS02001213WS02003059    1.00   0.00  0.00  0.00  1.00  0.00  0.00  0.00  0.00  0.00
  WS02001212WS02001213    1.00   0.00  0.00  0.00  0.92  0.00  0.07  0.00  0.00  0.00
  WS02001211WS02001212    1.00   0.00  0.00  0.00  1.00  0.00  0.00  0.00  0.00  0.00
  WS02003072WS02003073    1.00   0.00  0.00  0.00  0.00  0.00  0.00  1.00  0.00  0.00
  WS02003069WS02003072    1.00   0.00  0.00  0.00  1.00  0.00  0.00  0.00  0.18  0.00
  WS02003060WS02003069    1.00   0.00  0.00  0.00  0.99  0.01  0.00  0.00  0.08  0.00
  WS02003059WS02003060    1.00   0.00  0.00  0.00  1.00  0.00  0.00  0.00  0.01  0.00
  HS02004901HS02004770    1.00   0.03  0.00  0.00  0.97  0.00  0.00  0.00  0.00  0.00
  HS02004876HS02004881    1.00   0.00  0.00  0.00  1.00  0.00  0.00  0.00  0.00  0.00
  HS02004870HS02004876    1.00   0.00  0.00  0.00  0.99  0.01  0.00  0.00  0.95  0.00
  HS02004842HS02004848    1.00   0.00  0.03  0.00  0.97  0.00  0.00  0.00  0.58  0.00
  HS02004837HS02004842    1.00   0.00  0.00  0.00  1.00  0.00  0.00  0.00  0.11  0.00
  HS02004830HS02004837    1.00   0.00  0.00  0.00  1.00  0.00  0.00  0.00  0.99  0.00
  HS02004824HS02004830    1.00   0.00  0.00  0.00  1.00  0.00  0.00  0.00  0.00  0.00
  HS02004817HS02004824    1.00   0.00  0.00  0.00  1.00  0.00  0.00  0.00  1.00  0.00
  HS02004770HS02004777    1.00   0.00  0.03  0.00  0.97  0.00  0.00  0.00  0.03  0.00
  HS02004799HS02004480    1.00   0.00  0.01  0.00  0.96  0.00  0.03  0.00  0.00  0.00
  HS02004792HS02004799    1.00   0.00  0.00  0.00  1.00  0.00  0.00  0.00  0.98  0.00
  HS02004788HS02004792    1.00   0.00  0.00  0.00  1.00  0.00  0.00  0.00  0.98  0.00
  HS02004785HS02004788    1.00   0.00  0.00  0.00  1.00  0.00  0.00  0.00  0.00  0.00
  HS02004777HS02004785    1.00   0.00  0.00  0.00  1.00  0.00  0.00  0.00  0.12  0.00
  HS02004480HS02004478    1.00   0.04  0.00  0.00  0.64  0.00  0.00  0.32  0.00  0.00
  HS02004479HS02004480    1.00   0.01  0.00  0.00  0.99  0.00  0.00  0.00  0.12  0.00
  HS02004862HS02004870    1.00   0.00  0.00  0.00  1.00  0.00  0.00  0.00  0.04  0.00
  HS02004848HS02004852    1.00   0.03  0.00  0.00  0.97  0.00  0.00  0.00  0.77  0.00
  HS02004856HS02004862    1.00   0.00  0.04  0.00  0.96  0.00  0.00  0.00  0.83  0.00
  HS02004852HS02004856    1.00   0.03  0.00  0.00  0.96  0.00  0.00  0.00  0.86  0.00
  HS02004802HS02004478    1.00   0.04  0.00  0.00  0.96  0.00  0.00  0.00  0.03  0.00
  HS02004478WS02006287    1.00   0.04  0.00  0.00  0.71  0.25  0.00  0.00  0.68  0.00
  HS02004817HS02004807    1.00   0.00  0.03  0.00  0.97  0.00  0.00  0.00  0.01  0.00
  HS02004807HS02004802    1.00   0.03  0.00  0.00  0.96  0.00  0.00  0.00  0.00  0.00
  YS02001759YS02001757    1.00   0.00  0.00  0.00  1.00  0.00  0.00  0.00  0.16  0.00
  YS02001762YS02001759    1.00   0.00  0.00  0.00  1.00  0.00  0.00  0.00  0.03  0.00
  YS02001765YS02001762    1.00   0.00  0.00  0.00  1.00  0.00  0.00  0.00  0.14  0.00
  YS02001770YS02001767    1.00   0.00  0.00  0.00  1.00  0.00  0.00  0.00  0.00  0.00
  YS02001774YS02001770    1.00   0.00  0.04  0.00  0.96  0.00  0.00  0.00  0.03  0.00
  YS02001779YS02001774    1.00   0.00  0.00  0.00  1.00  0.00  0.00  0.00  0.18  0.00
  YS02001649YS02001757    1.00   0.00  0.00  0.00  1.00  0.00  0.00  0.00  0.16  0.00
  YS02001767YS02001765    1.00   0.00  0.00  0.00  1.00  0.00  0.00  0.00  0.00  0.00
  YS02006561YS02001783    1.00   0.04  0.00  0.00  0.23  0.73  0.00  0.00  0.57  0.00
  YS02001783YS02001784    1.00   0.00  0.04  0.00  0.96  0.00  0.00  0.00  0.00  0.00
  YS02001784YS02001785    1.00   0.00  0.00  0.00  1.00  0.00  0.00  0.00  0.17  0.00
  YS02001788YS02001790    1.00   0.00  0.00  0.00  0.32  0.68  0.00  0.00  0.52  0.00
  YS02001790YS02001791    1.00   0.00  0.00  0.00  0.28  0.72  0.00  0.00  0.56  0.00
  YS02001791YS02001793    1.00   0.00  0.00  0.00  0.29  0.71  0.00  0.00  0.01  0.00
  YS02001910YS02001907    1.00   0.00  0.00  0.00  0.99  0.00  0.00  0.00  0.12  0.00
  YS02001786YS02001788    1.00   0.00  0.00  0.00  0.29  0.71  0.00  0.00  0.00  0.00
  YS02001915YS02001910    1.00   0.00  0.00  0.00  0.99  0.01  0.00  0.00  0.16  0.00
  YS02001918YS02001915    1.00   0.00  0.00  0.00  1.00  0.00  0.00  0.00  0.60  0.00
  YS02001923YS02001920    1.00   0.00  0.00  0.00  1.00  0.00  0.00  0.00  0.93  0.00
  YS02001926YS02001923    1.00   0.00  0.03  0.00  0.00  0.00  0.97  0.00  0.00  0.00
  YS02001929YS02001926    1.00   0.00  0.03  0.00  0.97  0.00  0.00  0.00  0.87  0.00
  YS02001920YS02001918    1.00   0.00  0.00  0.00  1.00  0.00  0.00  0.00  0.00  0.00
  YS02001629YS02163301    1.00   0.04  0.00  0.00  0.96  0.00  0.00  0.00  0.00  0.00
  YS02001619YS02001622    1.00   0.03  0.00  0.00  0.97  0.00  0.00  0.00  0.00  0.00
  YS02001622YS02001625    1.00   0.03  0.00  0.00  0.97  0.00  0.00  0.00  0.04  0.00
  YS02001625YS02001629    1.00   0.03  0.01  0.00  0.94  0.00  0.01  0.00  0.00  0.00
  YS02163301YS02001633    1.00   0.00  0.04  0.00  0.96  0.00  0.00  0.00  0.00  0.00
  YS02163601YS02164001    1.00   0.00  0.03  0.00  0.97  0.00  0.00  0.00  0.00  0.00
  YS02164001YS02001641    1.00   0.00  0.03  0.00  0.97  0.00  0.00  0.00  0.06  0.00
  YS02001641YS02001644    1.00   0.00  0.00  0.00  1.00  0.00  0.00  0.00  0.00  0.00
  YS02001647YS02001649    1.00   0.00  0.04  0.00  0.96  0.00  0.00  0.00  0.01  0.00
  YS02006553YS02006556    1.00   0.00  0.00  0.00  1.00  0.00  0.00  0.00  0.03  0.00
  YS02006556YS02006558    1.00   0.00  0.00  0.00  1.00  0.00  0.00  0.00  0.00  0.00
  YSB6556YSB1171          1.00   0.02  0.02  0.00  0.97  0.00  0.00  0.00  0.00  0.00
  YS02001907YS02006553    1.00   0.00  0.00  0.00  1.00  0.00  0.00  0.00  0.00  0.00
  YS02006558YS02006561    1.00   0.04  0.00  0.00  0.07  0.89  0.00  0.00  0.52  0.00
  YS02001633YS02163601    1.00   0.00  0.00  0.00  1.00  0.00  0.00  0.00  0.15  0.00
  YS02001644YS02001647    1.00   0.00  0.04  0.00  0.96  0.00  0.00  0.00  0.00  0.00
  YS02001745YS02001748    1.00   0.00  0.00  0.00  0.91  0.01  0.00  0.08  0.05  0.00
  YS02001748YS02001751    1.00   0.00  0.00  0.00  0.98  0.02  0.00  0.00  0.14  0.00
  YS02001751YS02001754    1.00   0.00  0.00  0.00  0.95  0.00  0.00  0.05  0.02  0.00
  YS02001754YS02001757    1.00   0.00  0.00  0.00  1.00  0.00  0.00  0.00  0.18  0.00
  YS02001882YS02001884    1.00   0.04  0.00  0.00  0.96  0.00  0.00  0.00  0.00  0.00
  YS02001884YS02001887    1.00   0.02  0.01  0.00  0.97  0.00  0.00  0.00  0.00  0.00
  YS02001890YS02001895    1.00   0.00  0.04  0.00  0.96  0.00  0.00  0.00  0.00  0.00
  YS02001895YS02001898    1.00   0.04  0.00  0.00  0.96  0.00  0.00  0.00  0.00  0.00
  YS02001898YS02001901    1.00   0.04  0.00  0.00  0.96  0.00  0.00  0.00  0.01  0.00
  YS02001901YS02001904    1.00   0.04  0.00  0.00  0.96  0.00  0.00  0.00  0.00  0.00
  YS02001904YS02001907    1.00   0.00  0.04  0.00  0.96  0.00  0.00  0.00  0.00  0.00
  YS02001887YS02001890    1.00   0.00  0.00  0.00  0.99  0.00  0.01  0.00  0.00  0.00
  YS02001652YS02001649    1.00   0.00  0.00  0.00  1.00  0.00  0.00  0.00  0.16  0.00
  YS02001655YS02001652    1.00   0.00  0.00  0.00  0.95  0.00  0.00  0.05  0.02  0.00
  YS02001658YS02001655    1.00   0.00  0.04  0.00  0.94  0.02  0.00  0.00  0.05  0.00
  YS02001661YS02001658    1.00   0.04  0.00  0.00  0.91  0.06  0.00  0.00  0.05  0.00
  YS02001664YS02001661    1.00   0.03  0.00  0.00  0.87  0.10  0.00  0.00  0.21  0.00
  YSB1154YSB6556          1.00   0.03  0.00  0.00  0.97  0.00  0.00  0.00  0.02  0.00
  YSB1174YSB1171          1.00   0.02  0.01  0.00  0.97  0.00  0.00  0.00  0.00  0.00
  YSB1171HS02004479       1.00   0.02  0.00  0.00  0.98  0.00  0.00  0.01  0.10  0.00
  HS02004881HS02006253    1.00   0.02  0.00  0.00  0.79  0.02  0.00  0.17  0.66  0.00
  YS02001793JiankangQianchi    1.00   0.00  0.00  0.00  0.49  0.51  0.00  0.00  0.21  0.00
  YS02001757CaochengTiaoxuchi    1.00   0.00  0.06  0.00  0.94  0.00  0.00  0.00  0.00  0.00
  WSF200WS02003060        1.00   0.00  0.04  0.00  0.71  0.24  0.00  0.00  0.33  0.00
  1                       1.00   0.00  0.00  0.00  0.00  1.00  0.00  0.00  0.32  0.00
  2                       1.00   0.53  0.00  0.00  0.00  0.47  0.00  0.00  0.09  0.00
  3                       1.00   0.11  0.00  0.00  0.00  0.89  0.00  0.00  0.02  0.00
  4                       1.00   1.00  0.00  0.00  0.00  0.00  0.00  0.00  0.00  0.00
  
  
  *************************
  Conduit Surcharge Summary
  *************************
  
  ----------------------------------------------------------------------------
                                                           Hours        Hours 
                         --------- Hours Full --------   Above Full   Capacity
  Conduit                Both Ends  Upstream  Dnstream   Normal Flow   Limited
  ----------------------------------------------------------------------------
  WS02006229WS02006228        2.42      2.79      2.42      5.06         2.42
  WS02006256WS02006235        6.33      6.33      7.65      2.86         0.01
  WS02006252WS02006251        1.16      1.16      2.35      2.04         0.01
  WS02006251WS02006249        0.01      0.01      0.01      1.18         0.01
  WS02006249WS02006248        0.01      0.01      0.01      4.72         0.01
  WS02006247WS02006245        0.01      0.01      0.01      5.22         0.01
  WS02006243WS02006242        0.03      0.03      1.79      0.01         0.01
  WS02006242WS02006240        0.36      0.36      2.44      2.33         0.01
  WS02006240WS02006239        0.63      0.63      1.08      0.11         0.01
  WS02006239WS02006238        2.25      2.25      2.43      0.28         0.18
  WS02006238WS02006235        2.23      2.23      2.80      0.01         0.01
  WS02006235WS02006234        1.17      1.17      1.90      6.35         0.01
  WS02006234WS02006232        1.33      1.33      2.89      0.01         0.01
  WS02006232WS02006231        0.01      0.01      2.89      0.01         0.01
  WS02006231WS02006230        0.01      0.01      0.22      6.34         0.01
  WS02006230WS02006229        3.74      4.71      3.74      6.44         3.74
  WS02006228WS02006109        2.65      3.28      2.65      5.96         2.65
  WS02006112WS02006115        0.01      0.01      1.31      0.01         0.01
  WS02006111WS02006112        0.01      0.01      5.14      0.01         0.01
  WS02006110WS02006113        0.01      0.01      3.02      0.01         0.01
  WS02006109WS02006110        1.23      1.23      3.28      1.23         0.01
  WS02004405WS02004406        0.01      0.01      0.01      1.28         0.01
  WS02004404WS02004405        0.01      0.01      0.01      6.25         0.01
  WS02003072WS02003073        0.01      0.01      0.01      6.06         0.01
  YS02001759YS02001757        5.96      5.96      6.03      0.01         0.01
  YS02001762YS02001759        5.94      5.94      5.96      0.01         0.01
  YS02001765YS02001762        5.91      5.91      5.94      0.01         0.01
  YS02001770YS02001767        5.89      5.90      5.89      0.01         0.89
  YS02001774YS02001770        5.83      5.83      5.93      0.01         0.01
  YS02001779YS02001774        5.65      5.65      5.93      0.01         0.01
  YS02001649YS02001757        5.94      5.94      6.03      0.01         0.01
  YS02001767YS02001765        5.89      5.89      5.91      0.01         0.01
  YS02006561YS02001783        0.01      0.01      0.92      0.01         0.01
  YS02001783YS02001784        0.92      0.92      1.01      0.31         0.28
  YS02001784YS02001785        0.93      1.01      0.93      1.86         0.93
  YS02001788YS02001790        0.91      0.91      1.50      0.01         0.01
  YS02001790YS02001791        1.50      1.50      1.60      0.01         0.01
  YS02001791YS02001793        1.60      1.60      1.79      0.01         0.01
  YS02001910YS02001907        0.21      0.21      1.23      0.01         0.01
  YS02001786YS02001788        0.91      0.93      0.91      1.53         0.90
  YS02001915YS02001910        0.01      0.01      0.21      0.01         0.01
  YS02001629YS02163301        5.82      5.82      5.88      0.01         0.01
  YS02001619YS02001622        5.37      5.37      5.45      0.01         0.02
  YS02001622YS02001625        5.45      5.45      5.72      0.01         0.01
  YS02001625YS02001629        5.39      5.39      5.72      0.01         0.01
  YS02163301YS02001633        5.88      5.88      5.92      0.01         0.01
  YS02163601YS02164001        5.92      5.92      5.95      0.01         0.01
  YS02164001YS02001641        5.92      5.92      5.92      0.01         0.02
  YS02001641YS02001644        5.92      5.92      5.93      0.71         1.30
  YS02001647YS02001649        5.71      5.71      5.94      0.01         0.01
  YS02006553YS02006556        0.68      0.68      1.29      0.01         0.01
  YS02006556YS02006558        1.00      1.00      1.39      0.01         0.01
  YS02001907YS02006553        1.93      1.93      2.15      0.01         0.01
  YS02006558YS02006561        0.01      0.60      0.01      1.76         0.01
  YS02001633YS02163601        5.91      5.91      5.95      0.01         0.01
  YS02001644YS02001647        5.71      5.71      5.93      0.01         0.01
  YS02001745YS02001748        0.01      0.01      5.01      0.01         0.01
  YS02001748YS02001751        5.17      5.17      5.39      0.01         0.01
  YS02001751YS02001754        5.39      5.39      5.68      0.01         0.01
  YS02001754YS02001757        5.71      5.71      6.03      0.01         0.01
  YS02001890YS02001895        0.01      0.01      0.26      0.01         0.01
  YS02001904YS02001907        0.01      0.01      1.32      0.01         0.01
  YS02001887YS02001890        0.02      0.02      0.15      0.01         0.01
  YS02001652YS02001649        5.73      5.73      5.94      0.01         0.01
  YS02001655YS02001652        5.41      5.41      5.70      0.01         0.01
  YS02001658YS02001655        5.07      5.07      5.41      0.01         0.01
  YS02001661YS02001658        0.17      0.17      5.07      0.01         0.01
  YS02001664YS02001661        0.01      0.01      0.88      0.01         0.01
  YS02001793JiankangQianchi        1.77      1.77      2.92      0.01         0.01
  YS02001757CaochengTiaoxuchi        5.04      5.04      6.03      0.01         0.01
  
  
  ***************
  Pumping Summary
  ***************
  
  ---------------------------------------------------------------------------------------------------------
                                                  Min       Avg       Max     Total     Power    % Time Off
                        Percent   Number of      Flow      Flow      Flow    Volume     Usage    Pump Curve
  Pump                 Utilized   Start-Ups       LPS       LPS       LPS  10^6 ltr     Kw-hr    Low   High
  ---------------------------------------------------------------------------------------------------------
  CC-Pump-1               66.22           7      0.00    128.36    200.00     2.391      3.98    0.0   11.2
  CC-Pump-2               66.23           6      0.00    145.52    200.00     2.700      3.69    0.0   11.2
  JK-Pump-1               87.23           6      0.00    202.21    300.00     4.018     53.70    0.0    0.0
  JK-Pump-2               82.97           6      0.00    181.08    300.00     3.398     43.46    0.0    0.0
  XR-Pump-1               95.74           2      0.00     67.04     95.00     1.881     16.18    0.0    0.0
  XR-Pump-2               93.61           6      0.00     76.36     95.00     2.052     17.33    0.0    0.0
  XR-Pump-3               70.20           7      0.00     72.64     95.00     1.368     12.78    0.0    0.0
  XR-Pump-4               91.48           6      0.00     70.75     95.00     1.795     16.04    0.0    0.0
  

  Analysis begun on:  Tue Dec 21 10:36:22 2021
  Analysis ended on:  Tue Dec 21 10:36:26 2021
  Total elapsed time: 00:00:04