
  EPA STORM WATER MANAGEMENT MODEL - VERSION 5.1 (Build 5.3.0.dev0)
  --------------------------------------------------------------

  WARNING 04: minimum elevation drop used for Conduit WS02004404WS02004405
  WARNING 03: negative offset ignored for Link YS02001904YS02001907
  
  *********************************************************
  NOTE: The summary statistics displayed in this report are
  based on results found at every computational time step,  
  not just on results from each reporting time step.
  *********************************************************
  
  ****************
  Analysis Options
  ****************
  Flow Units ............... LPS
  Process Models:
    Rainfall/Runoff ........ YES
    RDII ................... NO
    Snowmelt ............... NO
    Groundwater ............ NO
    Flow Routing ........... YES
    Ponding Allowed ........ NO
    Water Quality .......... NO
  Infiltration Method ...... HORTON
  Flow Routing Method ...... DYNWAVE
  Surcharge Method ......... EXTRAN
  Starting Date ............ 08/28/2015 08:00:00
  Ending Date .............. 08/28/2015 15:50:00
  Antecedent Dry Days ...... 8.0
  Report Time Step ......... 00:01:00
  Wet Time Step ............ 00:01:00
  Dry Time Step ............ 00:01:00
  Routing Time Step ........ 5.00 sec
  Variable Time Step ....... YES
  Maximum Trials ........... 8
  Number of Threads ........ 4
  Head Tolerance ........... 0.001500 m
  
  
  **************************        Volume         Depth
  Runoff Quantity Continuity     hectare-m            mm
  **************************     ---------       -------
  Total Precipitation ......         2.495         5.462
  Evaporation Loss .........         0.000         0.000
  Infiltration Loss ........         0.624         1.367
  Surface Runoff ...........         1.004         2.198
  Final Storage ............         0.867         1.898
  Continuity Error (%) .....        -0.018
  
  
  **************************        Volume        Volume
  Flow Routing Continuity        hectare-m      10^6 ltr
  **************************     ---------     ---------
  Dry Weather Inflow .......         0.616         6.165
  Wet Weather Inflow .......         1.003        10.034
  Groundwater Inflow .......         0.000         0.000
  RDII Inflow ..............         0.000         0.000
  External Inflow ..........         0.102         1.024
  External Outflow .........         1.302        13.024
  Flooding Loss ............         0.065         0.650
  Evaporation Loss .........         0.000         0.000
  Exfiltration Loss ........         0.000         0.000
  Initial Stored Volume ....         0.076         0.761
  Final Stored Volume ......         0.557         5.565
  Continuity Error (%) .....        -6.987
  
  
  *************************
  Highest Continuity Errors
  *************************
  Node JK-storage (-41.53%)
  Node HS02004842 (30.08%)
  Node YS02001884 (24.58%)
  Node YS02001774 (12.47%)
  Node YSB1171 (7.64%)
  
  
  ***************************
  Time-Step Critical Elements
  ***************************
  Link 3 (49.74%)
  Link WS02006252WS02006251 (37.66%)
  Link YS02001793JiankangQianchi (4.28%)
  Link WS02006280WS02006229 (2.54%)
  
  
  ********************************
  Highest Flow Instability Indexes
  ********************************
  Link WS02006113WS02006111 (57)
  Link WS02006111WS02006112 (20)
  Link YS02164001YS02001641 (10)
  Link YS02001629YS02163301 (9)
  Link YS02001641YS02001644 (9)
  
  
  *************************
  Routing Time Step Summary
  *************************
  Minimum Time Step           :     0.29 sec
  Average Time Step           :     1.19 sec
  Maximum Time Step           :     5.00 sec
  Percent in Steady State     :    -0.00
  Average Iterations per Step :     2.90
  Percent Not Converging      :    10.38
  
  
  ***************************
  Subcatchment Runoff Summary
  ***************************
  
  ------------------------------------------------------------------------------------------------------------------------------
                            Total      Total      Total      Total     Imperv       Perv      Total       Total     Peak  Runoff
                           Precip      Runon       Evap      Infil     Runoff     Runoff     Runoff      Runoff   Runoff   Coeff
  Subcatchment                 mm         mm         mm         mm         mm         mm         mm    10^6 ltr      LPS
  ------------------------------------------------------------------------------------------------------------------------------
  sub0                       5.46       0.00       0.00       0.38       3.81       0.00       3.81        0.00     1.22   0.698
  sub1                       5.46       0.00       0.00       0.60       3.61       0.00       3.61        0.02     6.40   0.660
  sub2                       5.46       0.00       0.00       2.02       2.54       0.00       2.54        0.02     5.67   0.464
  sub3                       5.46       0.00       0.00       2.02       2.50       0.00       2.50        0.06    11.67   0.458
  sub4                       5.46       0.00       0.00       0.60       3.47       0.00       3.47        0.07    13.12   0.635
  sub5                       5.46       0.00       0.00       0.38       3.77       0.00       3.77        0.04    11.38   0.690
  sub7                       5.46       0.00       0.00       0.49       3.72       0.00       3.72        0.01     4.02   0.680
  sub8                       5.46       0.00       0.00       0.49       3.71       0.00       3.71        0.02     7.09   0.679
  sub9                       5.46       0.00       0.00       0.49       3.70       0.00       3.70        0.02     5.25   0.678
  sub10                      5.46       0.00       0.00       0.44       3.73       0.00       3.73        0.04    11.36   0.684
  sub11                      5.46       0.00       0.00       0.44       3.75       0.00       3.75        0.04    13.33   0.687
  sub12                      5.46       0.00       0.00       0.71       3.56       0.00       3.56        0.03    11.29   0.652
  sub14                      5.46       0.00       0.00       0.49       3.70       0.00       3.70        0.04    10.26   0.678
  sub15                      5.46       0.00       0.00       1.64       2.85       0.00       2.85        0.05    13.93   0.521
  sub16                      5.46       0.00       0.00       1.80       2.74       0.00       2.74        0.03     9.93   0.502
  sub17                      5.46       0.00       0.00       1.75       2.78       0.00       2.78        0.02     8.02   0.509
  sub22                      5.46       0.00       0.00       2.35       2.32       0.00       2.32        0.15    45.61   0.426
  sub23                      5.46       0.00       0.00       2.02       2.57       0.00       2.57        0.12    38.85   0.471
  sub60                      5.46       0.00       0.00       0.66       2.43       0.00       2.43        0.74    67.28   0.446
  sub61                      5.46       0.00       0.00       0.93       2.62       0.00       2.62        0.81    84.42   0.480
  sub62                      5.46       0.00       0.00       0.44       2.81       0.00       2.81        0.86    86.35   0.514
  sub63                      5.46       0.00       0.00       1.58       2.34       0.00       2.34        0.71    78.70   0.429
  sub64                      5.46       0.00       0.00       0.82       2.33       0.00       2.33        0.71    63.86   0.426
  sub65                      5.46       0.00       0.00       0.71       2.35       0.00       2.35        0.72    64.75   0.431
  sub66                      5.46       0.00       0.00       1.58       2.03       0.00       2.03        0.62    58.67   0.373
  sub67                      5.46       0.00       0.00       0.44       3.11       0.00       3.11        0.96   110.55   0.569
  sub68                      5.46       0.00       0.00       0.76       2.80       0.00       2.80        0.86    93.27   0.512
  sub69                      5.46       0.00       0.00       0.82       3.04       0.00       3.04        0.71    92.37   0.557
  sub70                      5.46       3.10       0.00       2.91       3.68       0.00       3.68        0.84    73.56   0.429
  sub71                      5.46       0.00       0.00       0.44       2.68       0.00       2.68        0.63    60.33   0.490
  sub72                      5.46       0.00       0.00       0.38       1.86       0.00       1.86        0.38    28.02   0.340
  sub73                      5.46       3.58       0.00       3.07       3.70       0.00       3.70        0.87    62.93   0.409
  sub74                      5.46       0.00       0.00       4.10       0.92       0.00       0.92        0.37    51.48   0.168
  
  
  ******************
  Node Depth Summary
  ******************
  
  ---------------------------------------------------------------------------------
                                 Average  Maximum  Maximum  Time of Max    Reported
                                   Depth    Depth      HGL   Occurrence   Max Depth
  Node                 Type       Meters   Meters   Meters  days hr:min      Meters
  ---------------------------------------------------------------------------------
  WS02001211           JUNCTION     0.61     0.71     5.55     0  03:21        0.71
  WS02001212           JUNCTION     0.34     0.43     5.49     0  03:20        0.43
  WS02001213           JUNCTION     0.56     0.67     5.43     0  03:19        0.67
  WS02003069           JUNCTION     0.38     0.50     5.08     0  03:18        0.50
  WS02003072           JUNCTION     0.45     0.56     4.93     0  03:19        0.56
  WS02003073           JUNCTION     0.26     0.34     4.40     0  03:19        0.34
  WS02003060           JUNCTION     0.34     0.44     5.37     0  03:17        0.44
  WS02003066           JUNCTION     0.20     0.28     5.83     0  02:42        0.28
  WS02003059           JUNCTION     0.62     0.73     5.42     0  03:19        0.73
  WS02003067           JUNCTION     0.51     0.67     5.99     0  02:42        0.67
  WS02004401           JUNCTION     0.59     0.79     6.79     0  02:39        0.79
  WS02004402           JUNCTION     0.63     0.82     6.78     0  02:39        0.82
  WS02004403           JUNCTION     0.65     0.84     6.77     0  02:39        0.84
  WS02004404           JUNCTION     0.73     0.91     6.76     0  02:40        0.91
  WS02004406           JUNCTION     0.74     0.91     6.74     0  02:40        0.91
  WS02004409           JUNCTION     0.41     0.61     6.38     0  02:41        0.61
  WS02004410           JUNCTION     0.43     0.63     6.35     0  02:41        0.63
  WS02004411           JUNCTION     0.45     0.64     6.32     0  02:42        0.64
  WS02004412           JUNCTION     0.47     0.65     6.29     0  02:42        0.65
  WS02004413           JUNCTION     0.62     0.81     6.28     0  02:42        0.81
  WS02004405           JUNCTION     0.72     0.91     6.76     0  02:40        0.91
  WS02006109           JUNCTION     0.66     0.89     7.50     0  02:35        0.89
  WS02006110           JUNCTION     0.66     0.86     7.45     0  02:36        0.86
  WS02006111           JUNCTION     0.19     0.27     6.97     0  02:36        0.26
  WS02006112           JUNCTION     0.75     0.98     6.86     0  02:38        0.98
  WS02006113           JUNCTION     0.28     0.42     7.31     0  02:36        0.42
  WS02006115           JUNCTION     0.48     0.69     6.83     0  02:39        0.69
  WS02006116           JUNCTION     0.56     0.77     6.81     0  02:39        0.77
  WS02006230           JUNCTION     0.59     0.89     7.64     0  02:35        0.89
  WS02006231           JUNCTION     0.39     0.57     7.69     0  02:36        0.57
  WS02006232           JUNCTION     0.51     0.70     7.74     0  02:36        0.70
  WS02006234           JUNCTION     0.42     0.62     7.77     0  02:36        0.62
  WS02006235           JUNCTION     0.44     0.64     7.80     0  02:36        0.64
  WS02006238           JUNCTION     0.47     0.67     7.81     0  02:36        0.67
  WS02006240           JUNCTION     0.34     0.56     7.85     0  02:37        0.56
  WS02006242           JUNCTION     0.38     0.61     7.88     0  02:37        0.61
  WS02006243           JUNCTION     0.25     0.49     7.91     0  02:38        0.49
  WS02006245           JUNCTION     0.21     0.46     7.94     0  02:38        0.46
  WS02006247           JUNCTION     0.22     0.47     7.97     0  02:38        0.47
  WS02006248           JUNCTION     0.18     0.41     8.00     0  02:39        0.41
  WS02006249           JUNCTION     0.21     0.45     8.04     0  02:39        0.45
  WS02006239           JUNCTION     0.41     0.62     7.83     0  02:36        0.62
  WS02006251           JUNCTION     0.20     0.43     8.10     0  02:38        0.43
  WS02006252           JUNCTION     0.18     0.35     8.59     0  04:20        0.35
  WS02006253           JUNCTION     0.22     0.46     8.10     0  02:38        0.46
  WS02006256           JUNCTION     1.01     2.35     9.28     0  00:00        1.20
  WS02004138           JUNCTION     0.14     0.17     7.42     0  00:00        0.17
  WS02004407           JUNCTION     0.19     0.27     6.59     0  02:40        0.27
  WS02006228           JUNCTION     0.65     0.91     7.56     0  02:35        0.91
  WS02006229           JUNCTION     0.62     0.89     7.59     0  02:35        0.89
  WS02006280           JUNCTION     0.06     0.14     8.41     0  02:20        0.14
  WS02006284           JUNCTION     0.35     0.47     8.87     0  02:20        0.47
  WS02006287           JUNCTION     0.08     0.20     9.15     0  02:20        0.20
  WSF200               JUNCTION     0.18     0.28     5.51     0  02:42        0.28
  HS02004901           JUNCTION     0.11     0.22    10.04     0  02:17        0.22
  HS02004881           JUNCTION     0.01     0.02     9.05     0  02:19        0.02
  HS02004876           JUNCTION     0.04     0.10     9.13     0  02:19        0.10
  HS02004870           JUNCTION     0.01     0.04     9.32     0  02:20        0.04
  HS02004862           JUNCTION     0.01     0.04     9.43     0  02:21        0.04
  HS02004856           JUNCTION     0.07     0.10     9.53     0  02:20        0.10
  HS02004852           JUNCTION     0.01     0.02     9.54     0  02:21        0.02
  HS02004848           JUNCTION     0.01     0.02     9.63     0  02:19        0.02
  HS02004842           JUNCTION     0.33     0.36     9.63     0  02:19        0.36
  HS02004837           JUNCTION     0.03     0.04     9.62     0  02:19        0.04
  HS02004830           JUNCTION     0.04     0.06     9.53     0  02:20        0.06
  HS02004824           JUNCTION     0.02     0.04     9.44     0  02:23        0.04
  HS02004817           JUNCTION     0.42     0.51     9.36     0  02:20        0.51
  HS02004807           JUNCTION     0.11     0.19     9.36     0  02:20        0.19
  HS02004802           JUNCTION     0.15     0.23     9.35     0  02:20        0.23
  HS02004799           JUNCTION     0.10     0.24     9.45     0  02:18        0.24
  HS02004792           JUNCTION     0.03     0.09     9.61     0  02:17        0.09
  HS02004788           JUNCTION     0.02     0.07     9.96     0  02:18        0.07
  HS02004785           JUNCTION     0.04     0.12    10.03     0  02:18        0.12
  HS02004777           JUNCTION     0.13     0.24    10.04     0  02:18        0.24
  HS02004770           JUNCTION     0.10     0.21    10.04     0  02:18        0.21
  HS02004480           JUNCTION     0.07     0.18     9.42     0  02:18        0.18
  HS02004479           JUNCTION     0.10     0.22     9.43     0  02:18        0.22
  HS02004478           JUNCTION     0.05     0.12     9.34     0  02:19        0.12
  YS02001745           JUNCTION     0.16     0.58     8.09     0  07:50        0.58
  YS02001748           JUNCTION     0.44     1.02     8.09     0  07:50        1.02
  YS02001751           JUNCTION     0.61     1.22     8.09     0  07:50        1.22
  YS02001754           JUNCTION     0.86     1.49     8.10     0  07:50        1.49
  YS02001762           JUNCTION     1.05     1.70     8.10     0  07:50        1.70
  YS02001765           JUNCTION     1.01     1.65     8.10     0  07:50        1.65
  YS02001767           JUNCTION     0.97     1.61     8.10     0  07:50        1.61
  YS02001770           JUNCTION     0.97     1.60     8.10     0  07:50        1.60
  YS02001774           JUNCTION     1.03     1.67     8.10     0  07:50        1.67
  YS02001779           JUNCTION     0.79     1.41     8.10     0  07:50        1.41
  YS02001882           JUNCTION     0.29     0.43     7.14     0  02:58        0.43
  YS02001884           JUNCTION     0.38     0.53     7.14     0  02:58        0.52
  YS02001759           JUNCTION     1.08     1.73     8.10     0  07:50        1.73
  YS02001887           JUNCTION     0.46     0.60     7.14     0  02:58        0.60
  YS02001890           JUNCTION     0.49     0.63     7.14     0  02:58        0.63
  YS02001898           JUNCTION     0.26     0.39     7.12     0  02:59        0.39
  YS02001901           JUNCTION     0.37     0.52     7.12     0  02:59        0.52
  YS02001904           JUNCTION     0.35     0.49     7.12     0  03:00        0.49
  YS02001907           JUNCTION     0.68     0.83     7.12     0  02:59        0.83
  YS02001910           JUNCTION     0.47     0.62     7.12     0  02:59        0.62
  YS02001915           JUNCTION     0.27     0.40     7.12     0  02:59        0.40
  YS02001918           JUNCTION     0.07     0.09     7.16     0  03:03        0.09
  YS02001619           JUNCTION     0.58     1.17     8.09     0  07:49        1.17
  YS02001629           JUNCTION     0.92     1.55     8.09     0  07:50        1.55
  YS02001641           JUNCTION     1.02     1.66     8.10     0  07:50        1.66
  YS02001644           JUNCTION     1.03     1.66     8.10     0  07:50        1.66
  YS02001652           JUNCTION     0.87     1.50     8.10     0  07:50        1.50
  YS02001655           JUNCTION     0.64     1.25     8.10     0  07:50        1.25
  YS02001920           JUNCTION     0.17     0.20     7.20     0  03:03        0.20
  YS02001923           JUNCTION     0.06     0.08     7.34     0  03:02        0.08
  YS02001926           JUNCTION     0.14     0.17     7.61     0  03:01        0.17
  YS02001929           JUNCTION     0.06     0.08     7.77     0  03:01        0.08
  YS02001658           JUNCTION     0.38     0.95     8.09     0  07:50        0.95
  YS02001661           JUNCTION     0.24     0.69     8.09     0  07:50        0.69
  YS02001664           JUNCTION     0.07     0.17     8.09     0  07:50        0.17
  YS02001622           JUNCTION     0.60     1.19     8.09     0  07:49        1.19
  YS02001633           JUNCTION     1.01     1.64     8.10     0  07:50        1.64
  YS02001649           JUNCTION     1.06     1.71     8.10     0  07:50        1.71
  YS02001757           JUNCTION     1.18     1.83     8.10     0  07:50        1.83
  YS02001895           JUNCTION     0.25     0.39     7.13     0  02:59        0.39
  YS02001625           JUNCTION     0.87     1.49     8.09     0  07:50        1.49
  YS02163301           JUNCTION     0.95     1.58     8.10     0  07:50        1.58
  YS02163601           JUNCTION     1.06     1.70     8.10     0  07:50        1.70
  YS02164001           JUNCTION     1.00     1.64     8.10     0  07:50        1.64
  YS02001647           JUNCTION     0.86     1.49     8.10     0  07:50        1.49
  YSB1154              JUNCTION     0.24     0.37     9.43     0  02:19        0.37
  YSB6556              JUNCTION     0.14     0.26     9.43     0  02:18        0.26
  YSB1174              JUNCTION     0.19     0.32     9.43     0  02:19        0.32
  YSB1171              JUNCTION     0.39     0.52     9.43     0  02:18        0.52
  YS02006553           JUNCTION     0.68     0.84     7.12     0  02:59        0.84
  YS02006561           JUNCTION     0.14     0.21     6.87     0  03:00        0.21
  YS02006556           JUNCTION     0.66     0.81     7.12     0  03:00        0.81
  YS02006558           JUNCTION     0.70     0.85     7.12     0  03:00        0.85
  YS02001783           JUNCTION     0.24     0.38     6.52     0  03:01        0.38
  YS02001784           JUNCTION     0.28     0.40     6.47     0  03:00        0.40
  YS02001786           JUNCTION     0.24     0.34     6.37     0  03:01        0.34
  YS02001788           JUNCTION     0.17     0.26     6.24     0  03:02        0.26
  YS02001790           JUNCTION     0.21     0.35     6.00     0  03:04        0.35
  YS02001791           JUNCTION     0.15     0.55     6.02     0  03:05        0.53
  YS02001793           JUNCTION     0.20     1.74     6.57     0  02:55        1.10
  WS02004139           JUNCTION     0.56     0.65     5.56     0  03:21        0.65
  WSC                  OUTFALL      0.26     0.34     1.01     0  03:20        0.34
  3                    OUTFALL      0.07     0.23     6.23     0  00:00        0.19
  4                    OUTFALL      0.00     0.00     7.00     0  00:00        0.00
  5                    OUTFALL      0.00     0.00     5.00     0  00:00        0.00
  JK-storage           STORAGE      1.15     5.16     5.96     0  03:00        5.15
  CC-storage           STORAGE      0.44     1.09     8.09     0  07:50        1.09
  XR-storage           STORAGE      5.71     7.72     5.72     0  04:33        7.72
  
  
  *******************
  Node Inflow Summary
  *******************
  
  -------------------------------------------------------------------------------------------------
                                  Maximum  Maximum                  Lateral       Total        Flow
                                  Lateral    Total  Time of Max      Inflow      Inflow     Balance
                                   Inflow   Inflow   Occurrence      Volume      Volume       Error
  Node                 Type           LPS      LPS  days hr:min    10^6 ltr    10^6 ltr     Percent
  -------------------------------------------------------------------------------------------------
  WS02001211           JUNCTION      7.35   292.86     0  03:28       0.207        6.08       0.478
  WS02001212           JUNCTION      0.00   293.08     0  03:29           0        6.05       0.259
  WS02001213           JUNCTION      0.00   293.30     0  03:29           0        6.04       0.319
  WS02003069           JUNCTION      0.32   712.01     0  03:18     0.00902        11.2       0.178
  WS02003072           JUNCTION      0.00   711.98     0  03:18           0        11.2       0.238
  WS02003073           JUNCTION      1.82   713.80     0  03:19      0.0514        11.2       0.251
  WS02003060           JUNCTION     16.53   711.68     0  03:17       0.466        11.2       0.172
  WS02003066           JUNCTION      0.00   458.83     0  02:42           0        4.77       0.061
  WS02003059           JUNCTION      0.00   293.69     0  03:28           0        6.02       0.500
  WS02003067           JUNCTION      0.00   458.77     0  02:42           0        4.78       0.140
  WS02004401           JUNCTION      0.00   463.30     0  02:38           0        4.94       0.316
  WS02004402           JUNCTION      0.00   462.76     0  02:38           0        4.93       0.309
  WS02004403           JUNCTION      0.00   462.50     0  02:39           0        4.91       0.289
  WS02004404           JUNCTION      0.16   462.56     0  02:39     0.00457         4.9       0.226
  WS02004406           JUNCTION      0.00   462.52     0  02:40           0        4.88       0.556
  WS02004409           JUNCTION      0.00   462.44     0  02:40           0        4.84       0.191
  WS02004410           JUNCTION      0.00   461.25     0  02:41           0        4.84       0.231
  WS02004411           JUNCTION      0.00   460.26     0  02:41           0        4.82       0.250
  WS02004412           JUNCTION      0.00   459.56     0  02:41           0        4.81       0.289
  WS02004413           JUNCTION      0.00   459.06     0  02:42           0         4.8       0.455
  WS02004405           JUNCTION      0.04   462.55     0  02:39     0.00107        4.89       0.344
  WS02006109           JUNCTION      1.23   462.78     0  02:35      0.0347        5.01       0.344
  WS02006110           JUNCTION      0.00   462.79     0  02:35           0        4.99       0.286
  WS02006111           JUNCTION      0.00   476.85     0  02:36           0        4.97       0.049
  WS02006112           JUNCTION      8.02   469.04     0  02:36      0.0238        4.99       0.433
  WS02006113           JUNCTION      0.00   462.88     0  02:36           0        4.97       0.112
  WS02006115           JUNCTION      0.00   465.98     0  02:36           0        4.97       0.262
  WS02006116           JUNCTION      0.00   464.24     0  02:38           0        4.96       0.266
  WS02006230           JUNCTION     10.28   328.86     0  03:13        0.29        4.16       0.277
  WS02006231           JUNCTION      0.00   318.03     0  03:12           0        3.88       0.083
  WS02006232           JUNCTION      0.00   317.77     0  03:12           0        3.89       0.294
  WS02006234           JUNCTION      0.00   317.44     0  03:12           0        3.89       0.070
  WS02006235           JUNCTION      0.00   317.28     0  03:11           0        3.93       0.197
  WS02006238           JUNCTION      0.00   257.28     0  02:40           0        1.52       0.269
  WS02006240           JUNCTION      0.00   244.59     0  02:41           0         1.5       0.268
  WS02006242           JUNCTION      0.00   239.15     0  02:41           0        1.49       0.308
  WS02006243           JUNCTION      0.00   233.53     0  02:41           0        1.48      -0.258
  WS02006245           JUNCTION      0.00   230.88     0  02:42           0        1.48       0.159
  WS02006247           JUNCTION      0.00   229.08     0  02:42           0        1.48       0.003
  WS02006248           JUNCTION      0.00   229.29     0  02:30           0        1.48      -0.094
  WS02006249           JUNCTION      0.00   230.40     0  02:30           0        1.49       0.161
  WS02006239           JUNCTION      0.00   251.05     0  02:40           0        1.51       0.336
  WS02006251           JUNCTION      0.08   231.52     0  02:28     0.00217        1.49      -0.007
  WS02006252           JUNCTION      0.00   200.00     0  02:25           0        1.35       0.005
  WS02006253           JUNCTION      1.22    35.36     0  02:19     0.00309       0.136      -0.131
  WS02006256           JUNCTION      0.00   600.00     0  00:00           0        4.28       0.047
  WS02004138           JUNCTION      0.00   285.00     0  00:00           0         5.9       0.073
  WS02004407           JUNCTION      0.00   462.48     0  02:40           0        4.85       0.090
  WS02006228           JUNCTION      0.00   461.55     0  02:35           0        4.98       0.230
  WS02006229           JUNCTION      0.00   461.54     0  02:35           0        4.99       0.174
  WS02006280           JUNCTION      0.00   183.56     0  02:20           0       0.839       0.008
  WS02006284           JUNCTION      0.10   183.55     0  02:20      0.0027        0.84       0.128
  WS02006287           JUNCTION      0.00   183.47     0  02:19           0       0.838       0.086
  WSF200               JUNCTION      0.00   458.80     0  02:42           0        4.77       0.047
  HS02004901           JUNCTION      9.93     9.93     0  02:11      0.0287      0.0288       6.491
  HS02004881           JUNCTION      4.02    34.42     0  02:19      0.0125       0.131       0.196
  HS02004876           JUNCTION      6.40    30.69     0  02:19       0.024       0.119       0.444
  HS02004870           JUNCTION      7.09    24.41     0  02:19      0.0237      0.0952       0.112
  HS02004862           JUNCTION      5.87    17.79     0  02:20      0.0293      0.0717       0.236
  HS02004856           JUNCTION      5.25    11.97     0  02:19      0.0178      0.0439       3.386
  HS02004852           JUNCTION      0.00     7.04     0  02:19           0      0.0261       0.193
  HS02004848           JUNCTION     11.67    11.67     0  02:23      0.0563      0.0563       0.078
  HS02004842           JUNCTION      0.00     5.01     0  02:33           0      0.0432      43.030
  HS02004837           JUNCTION     17.71    22.03     0  02:18        0.22        0.25       0.326
  HS02004830           JUNCTION      0.15    22.16     0  02:19     0.00423       0.241       0.514
  HS02004824           JUNCTION     13.17    35.16     0  02:23      0.0738       0.313       0.172
  HS02004817           JUNCTION      0.60    35.76     0  02:23      0.0169        0.33       5.323
  HS02004807           JUNCTION     13.33    47.90     0  02:21      0.0435       0.357       1.199
  HS02004802           JUNCTION      0.00    48.08     0  02:22           0       0.352       1.165
  HS02004799           JUNCTION     10.26   115.46     0  02:17      0.0352       0.431       0.529
  HS02004792           JUNCTION     45.89   105.41     0  02:17       0.155       0.396       0.104
  HS02004788           JUNCTION     15.60    61.35     0  02:18       0.096       0.243       0.160
  HS02004785           JUNCTION      0.15    46.15     0  02:17     0.00423       0.149       0.325
  HS02004777           JUNCTION      0.03    46.52     0  02:16    0.000846       0.149       3.603
  HS02004770           JUNCTION     38.85    47.67     0  02:13       0.123        0.15       2.114
  HS02004480           JUNCTION      0.00   136.20     0  02:18           0       0.502       0.142
  HS02004479           JUNCTION      0.00    21.12     0  02:20           0      0.0833       0.883
  HS02004478           JUNCTION      0.00   183.48     0  02:19           0       0.839       0.075
  YS02001745           JUNCTION     67.29    96.07     0  05:53       0.738       0.772       1.073
  YS02001748           JUNCTION      0.04   182.65     0  03:35     0.00127         0.9       2.544
  YS02001751           JUNCTION      0.01   226.08     0  03:35     0.00031        0.85       2.833
  YS02001754           JUNCTION      0.26   161.45     0  03:44     0.00733       0.758       3.338
  YS02001762           JUNCTION      0.00   118.38     0  03:35           0       0.796       2.734
  YS02001765           JUNCTION      0.00    96.78     0  02:50           0       0.797       3.037
  YS02001767           JUNCTION      0.54   147.64     0  03:55      0.0151       0.818       4.356
  YS02001770           JUNCTION     86.51   135.47     0  03:57       0.867       0.953       3.263
  YS02001774           JUNCTION      0.00    94.41     0  03:56           0       0.201      14.245
  YS02001779           JUNCTION      0.01    90.06     0  03:54    0.000141       0.091      19.779
  YS02001882           JUNCTION      0.00     3.54     0  02:08           0     0.00483      50.947
  YS02001884           JUNCTION      0.00    10.12     0  02:08           0      0.0194      32.584
  YS02001759           JUNCTION     84.46   187.61     0  03:21        0.81        1.57       1.498
  YS02001887           JUNCTION    111.00   111.00     0  02:47       0.971       0.981       0.724
  YS02001890           JUNCTION      0.00   110.35     0  02:49           0       0.958       0.814
  YS02001898           JUNCTION      0.00   109.89     0  02:52           0       0.947       0.224
  YS02001901           JUNCTION      0.00   109.75     0  02:52           0       0.946       0.575
  YS02001904           JUNCTION      0.00   109.38     0  02:53           0       0.945       0.535
  YS02001907           JUNCTION      0.00   199.93     0  03:02           0        2.02       1.095
  YS02001910           JUNCTION      0.00    91.19     0  03:01           0        1.08       0.932
  YS02001915           JUNCTION     60.35    90.96     0  03:01       0.633        1.09       0.408
  YS02001918           JUNCTION      0.00    30.87     0  03:03           0       0.457       0.234
  YS02001619           JUNCTION     58.67    61.33     0  04:12       0.624       0.627       2.038
  YS02001629           JUNCTION      0.00   131.92     0  03:49           0       0.591       5.280
  YS02001641           JUNCTION      0.00   160.32     0  03:40           0        1.17       1.773
  YS02001644           JUNCTION     63.90   203.16     0  03:28       0.708        1.85       1.369
  YS02001652           JUNCTION      0.00   132.24     0  03:34           0       0.721       3.338
  YS02001655           JUNCTION      0.15   218.19     0  03:37     0.00434       0.776       3.334
  YS02001920           JUNCTION      2.87    30.89     0  03:02      0.0809       0.459       0.430
  YS02001923           JUNCTION      0.04    28.02     0  03:02     0.00106       0.379       0.075
  YS02001926           JUNCTION      0.05    28.05     0  03:01     0.00147        0.38       0.541
  YS02001929           JUNCTION     28.02    28.02     0  03:01       0.378       0.378       0.073
  YS02001658           JUNCTION      0.00   171.33     0  03:41           0       0.828       2.822
  YS02001661           JUNCTION      0.00    86.72     0  05:37           0       0.747       2.155
  YS02001664           JUNCTION     78.70    78.70     0  02:49       0.709       0.709       0.229
  YS02001622           JUNCTION      0.00   100.26     0  04:12           0       0.639       5.256
  YS02001633           JUNCTION     64.95   137.28     0  03:03       0.729        1.22       2.650
  YS02001649           JUNCTION      0.00   307.95     0  03:27           0        2.47       1.558
  YS02001757           JUNCTION      0.00   491.49     0  03:01           0        4.61       2.053
  YS02001895           JUNCTION      0.00   110.03     0  02:51           0        0.95       0.381
  YS02001625           JUNCTION      0.00   159.45     0  03:49           0       0.652       6.417
  YS02163301           JUNCTION      0.00    95.35     0  03:45           0       0.522       4.751
  YS02163601           JUNCTION      0.11   148.96     0  03:57      0.0031        1.19       2.518
  YS02164001           JUNCTION      0.00   156.19     0  03:27           0        1.17       1.712
  YS02001647           JUNCTION      0.00   202.43     0  03:27           0        1.81       1.593
  YSB1154              JUNCTION     11.38    11.38     0  02:16      0.0427       0.044       3.391
  YSB6556              JUNCTION      0.00    11.39     0  02:18           0      0.0451       2.842
  YSB1174              JUNCTION     11.29    11.29     0  02:10      0.0311      0.0322       4.156
  YSB1171              JUNCTION      0.00    21.13     0  02:17           0      0.0828       8.266
  YS02006553           JUNCTION      0.00   200.29     0  03:02           0        2.01       0.711
  YS02006561           JUNCTION      0.00   293.07     0  03:00           0        2.84       0.022
  YS02006556           JUNCTION      0.00   200.57     0  03:03           0        2.01       0.512
  YS02006558           JUNCTION     94.15   293.08     0  02:59       0.885        2.87       0.156
  YS02001783           JUNCTION      0.00   293.07     0  03:00           0        2.84       0.052
  YS02001784           JUNCTION      1.06   294.16     0  03:00      0.0299        2.87       0.085
  YS02001786           JUNCTION      0.06   294.32     0  03:01     0.00159        2.87       0.083
  YS02001788           JUNCTION      0.07   294.84     0  03:01       0.002        2.87       0.048
  YS02001790           JUNCTION      0.15   296.72     0  03:02     0.00437        2.87       0.065
  YS02001791           JUNCTION      0.00   340.94     0  03:05           0        2.87       0.033
  YS02001793           JUNCTION      0.00   562.72     0  03:10           0        2.87      -0.008
  WS02004139           JUNCTION      0.32   290.33     0  00:00     0.00905         5.9       0.554
  WSC                  OUTFALL       0.00   713.80     0  03:20           0        11.2       0.000
  3                    OUTFALL       0.00   597.65     0  00:00           0        1.84       0.000
  4                    OUTFALL       0.00     0.00     0  00:00           0           0       0.000 ltr
  5                    OUTFALL       0.00     0.00     0  00:00           0           0       0.000 ltr
  JK-storage           STORAGE       0.00   677.49     0  03:34           0        3.02     -29.343
  CC-storage           STORAGE       0.00   489.79     0  03:03           0        4.45       1.315
  XR-storage           STORAGE     309.18   309.18     0  03:01        6.88        7.48      -0.001
  
  
  **********************
  Node Surcharge Summary
  **********************
  
  Surcharging occurs when water rises above the top of the highest conduit.
  ---------------------------------------------------------------------
                                               Max. Height   Min. Depth
                                   Hours       Above Crown    Below Rim
  Node                 Type      Surcharged         Meters       Meters
  ---------------------------------------------------------------------
  WS02006109           JUNCTION        0.55          0.067        1.753
  WS02006232           JUNCTION        0.01          0.000        1.480
  WS02006256           JUNCTION        0.01          1.050        0.000
  WS02006228           JUNCTION        0.50          0.077        2.123
  YS02001751           JUNCTION        1.59          0.216        0.984
  YS02001754           JUNCTION        2.70          0.437        0.713
  YS02001762           JUNCTION        4.32          0.696        0.454
  YS02001765           JUNCTION        3.90          0.646        0.454
  YS02001767           JUNCTION        3.78          0.607        0.423
  YS02001770           JUNCTION        3.64          0.571        0.349
  YS02001774           JUNCTION        4.00          0.674        0.376
  YS02001779           JUNCTION        2.59          0.410        0.270
  YS02001759           JUNCTION        4.98          0.732        0.478
  YS02001619           JUNCTION        1.28          0.166        0.444
  YS02001629           JUNCTION        1.28          0.166        0.304
  YS02001641           JUNCTION        3.93          0.658        0.442
  YS02001644           JUNCTION        3.97          0.663        0.257
  YS02001652           JUNCTION        2.85          0.470        0.660
  YS02001655           JUNCTION        1.77          0.245        0.955
  YS02001622           JUNCTION        1.44          0.191        0.429
  YS02001633           JUNCTION        3.82          0.621        0.439
  YS02001649           JUNCTION        4.68          0.706        0.344
  YS02001757           JUNCTION        5.23          0.835        0.375
  YS02001625           JUNCTION        2.96          0.491        0.289
  YS02163301           JUNCTION        3.68          0.578        0.452
  YS02163601           JUNCTION        4.55          0.697        0.383
  YS02164001           JUNCTION        3.87          0.637        0.463
  YS02001647           JUNCTION        2.93          0.485        0.415
  YS02001793           JUNCTION        0.27          0.742        1.858
  
  
  *********************
  Node Flooding Summary
  *********************
  
  Flooding refers to all water that overflows a node, whether it ponds or not.
  --------------------------------------------------------------------------
                                                             Total   Maximum
                                 Maximum   Time of Max       Flood    Ponded
                        Hours       Rate    Occurrence      Volume     Depth
  Node                 Flooded       LPS   days hr:min    10^6 ltr    Meters
  --------------------------------------------------------------------------
  WS02006256              0.01    406.11      0  00:00       0.001     0.000
  XR-storage              3.27    165.27      0  04:33       0.649     0.000
  
  
  **********************
  Storage Volume Summary
  **********************
  
  --------------------------------------------------------------------------------------------------
                         Average     Avg  Evap Exfil       Maximum     Max    Time of Max    Maximum
                          Volume    Pcnt  Pcnt  Pcnt        Volume    Pcnt     Occurrence    Outflow
  Storage Unit           1000 m3    Full  Loss  Loss       1000 m3    Full    days hr:min        LPS
  --------------------------------------------------------------------------------------------------
  JK-storage               0.058      20     0     0         0.259      89       0  03:00     600.00
  CC-storage               1.229       8     0     0         3.048      19       0  07:50     200.00
  XR-storage               0.685      74     0     0         0.926     100       0  04:33     285.00
  
  
  ***********************
  Outfall Loading Summary
  ***********************
  
  -----------------------------------------------------------
                         Flow       Avg       Max       Total
                         Freq      Flow      Flow      Volume
  Outfall Node           Pcnt       LPS       LPS    10^6 ltr
  -----------------------------------------------------------
  WSC                   99.99    458.14    713.80      11.183
  3                     82.93    134.79    597.65       1.841
  4                      0.00      0.00      0.00       0.000
  5                      0.00      0.00      0.00       0.000
  -----------------------------------------------------------
  System                45.73    592.93   1105.14      13.024
  
  
  ********************
  Link Flow Summary
  ********************
  
  -----------------------------------------------------------------------------
                                 Maximum  Time of Max   Maximum    Max/    Max/
                                  |Flow|   Occurrence   |Veloc|    Full    Full
  Link                 Type          LPS  days hr:min     m/sec    Flow   Depth
  -----------------------------------------------------------------------------
  WS02003066WSF200     CONDUIT    458.80     0  02:42      2.63    0.08    0.21
  WS02006287WS02006284 CONDUIT    183.46     0  02:20      1.56    0.09    0.21
  WS02006284WS02006280 CONDUIT    183.56     0  02:20      1.80    0.08    0.19
  WS02006280WS02006229 CONDUIT    183.56     0  02:20      2.89    0.04    0.14
  WS02006229WS02006228 CONDUIT    461.55     0  02:35      0.92    1.53    1.00
  WS02006256WS02006235 CONDUIT    177.52     0  00:01      2.73    1.88    1.00
  WS02006253WS02006251 CONDUIT     35.46     0  02:20      0.47    0.11    0.63
  WS02006252WS02006251 CONDUIT    200.33     0  04:20      1.97    0.74    0.76
  WS02006251WS02006249 CONDUIT    230.40     0  02:30      0.96    0.66    0.63
  WS02006249WS02006248 CONDUIT    229.29     0  02:30      1.04    1.26    0.60
  WS02006248WS02006247 CONDUIT    229.08     0  02:42      1.01    0.50    0.63
  WS02006247WS02006245 CONDUIT    230.88     0  02:42      0.97    1.83    0.66
  WS02006245WS02006243 CONDUIT    233.53     0  02:41      1.01    0.69    0.67
  WS02006243WS02006242 CONDUIT    239.15     0  02:41      0.85    0.51    0.76
  WS02006242WS02006240 CONDUIT    244.59     0  02:41      0.79    0.97    0.83
  WS02006240WS02006239 CONDUIT    251.05     0  02:40      0.85    0.79    0.81
  WS02006239WS02006238 CONDUIT    257.28     0  02:40      0.76    0.82    0.90
  WS02006238WS02006235 CONDUIT    260.66     0  02:40      1.32    0.58    0.93
  WS02006235WS02006234 CONDUIT    317.44     0  03:12      0.94    3.35    0.88
  WS02006234WS02006232 CONDUIT    317.77     0  03:12      1.17    0.64    0.94
  WS02006232WS02006231 CONDUIT    318.03     0  03:12      0.94    0.67    0.90
  WS02006231WS02006230 CONDUIT    318.58     0  03:13      1.28    4.83    0.77
  WS02006230WS02006229 CONDUIT    329.87     0  03:12      0.86    7.34    1.00
  WS02006228WS02006109 CONDUIT    461.55     0  02:35      0.92    2.02    1.00
  WS02006116WS02004401 CONDUIT    463.30     0  02:38      0.71    0.64    0.78
  WS02006115WS02006116 CONDUIT    464.24     0  02:38      0.81    0.60    0.70
  WS02006113WS02006111 CONDUIT    476.85     0  02:36      2.33    0.57    0.43
  WS02006112WS02006115 CONDUIT    465.98     0  02:36      0.68    0.28    0.83
  WS02006111WS02006112 CONDUIT    464.54     0  02:36      1.32    0.22    0.66
  WS02006110WS02006113 CONDUIT    462.88     0  02:36      1.13    0.42    0.76
  WS02006109WS02006110 CONDUIT    462.79     0  02:35      0.93    0.89    0.97
  WS02004411WS02004412 CONDUIT    459.56     0  02:41      0.86    0.65    0.65
  WS02004401WS02004402 CONDUIT    462.76     0  02:38      0.68    0.56    0.81
  WS02004413WS02003067 CONDUIT    458.77     0  02:42      1.02    0.20    0.56
  WS02004412WS02004413 CONDUIT    459.06     0  02:42      0.74    0.31    0.73
  WS02004410WS02004411 CONDUIT    460.26     0  02:41      0.88    0.63    0.63
  WS02004409WS02004410 CONDUIT    461.25     0  02:41      0.91    0.60    0.62
  WS02004407WS02004409 CONDUIT    462.44     0  02:40      1.40    0.16    0.44
  WS02004406WS02004407 CONDUIT    462.48     0  02:40      0.95    0.21    0.59
  WS02004405WS02004406 CONDUIT    462.52     0  02:40      0.62    0.91    0.91
  WS02004404WS02004405 CONDUIT    462.51     0  02:39      0.62    4.53    0.91
  WS02004403WS02004404 CONDUIT    462.39     0  02:39      0.63    0.33    0.88
  WS02004402WS02004403 CONDUIT    462.50     0  02:39      0.66    0.66    0.83
  WS02004139WS02001211 CONDUIT    285.51     0  03:28      0.80    0.36    0.52
  WS02004138WS02004139 CONDUIT    290.01     0  00:00      3.34    0.06    0.38
  WS02003067WS02003066 CONDUIT    458.83     0  02:42      1.10    0.15    0.39
  WS02001213WS02003059 CONDUIT    293.69     0  03:28      0.80    0.48    0.69
  WS02001212WS02001213 CONDUIT    293.30     0  03:29      1.19    0.45    0.39
  WS02001211WS02001212 CONDUIT    293.08     0  03:29      0.67    0.22    0.57
  WS02003072WS02003073 CONDUIT    711.98     0  03:19      1.57    1.54    0.42
  WS02003069WS02003072 CONDUIT    711.98     0  03:18      1.48    0.34    0.44
  WS02003060WS02003069 CONDUIT    711.69     0  03:18      1.74    0.28    0.39
  WS02003059WS02003060 CONDUIT    294.24     0  03:27      0.82    0.19    0.58
  HS02004901HS02004770 CONDUIT      9.10     0  02:16      0.04    0.03    0.31
  HS02004876HS02004881 CONDUIT     30.74     0  02:20      0.52    0.33    0.09
  HS02004870HS02004876 CONDUIT     24.40     0  02:20      0.36    0.02    0.10
  HS02004842HS02004848 CONDUIT      5.01     0  02:33      0.03    0.00    0.27
  HS02004837HS02004842 CONDUIT      5.17     0  02:33      0.41    0.00    0.29
  HS02004830HS02004837 CONDUIT     22.01     0  02:19      0.43    0.02    0.07
  HS02004824HS02004830 CONDUIT     22.16     0  02:20      0.47    0.03    0.07
  HS02004817HS02004824 CONDUIT     35.16     0  02:23      0.17    0.02    0.39
  HS02004770HS02004777 CONDUIT     46.49     0  02:16      0.21    0.09    0.32
  HS02004799HS02004480 CONDUIT    115.29     0  02:17      0.56    0.15    0.30
  HS02004792HS02004799 CONDUIT    105.36     0  02:17      0.64    0.06    0.23
  HS02004788HS02004792 CONDUIT     61.30     0  02:18      0.80    0.04    0.11
  HS02004785HS02004788 CONDUIT     46.02     0  02:18      0.48    0.35    0.14
  HS02004777HS02004785 CONDUIT     46.00     0  02:17      0.25    0.06    0.26
  HS02004480HS02004478 CONDUIT    136.16     0  02:18      0.92    0.57    0.21
  HS02004479HS02004480 CONDUIT     21.29     0  02:21      0.16    0.02    0.29
  HS02004862HS02004870 CONDUIT     17.76     0  02:21      0.44    0.02    0.06
  HS02004848HS02004852 CONDUIT      7.04     0  02:19      0.29    0.01    0.03
  HS02004856HS02004862 CONDUIT     11.94     0  02:20      0.32    0.01    0.05
  HS02004852HS02004856 CONDUIT      7.01     0  02:21      0.11    0.01    0.09
  HS02004802HS02004478 CONDUIT     48.34     0  02:23      0.29    0.04    0.24
  HS02004478WS02006287 CONDUIT    183.47     0  02:19      1.26    0.05    0.16
  HS02004817HS02004807 CONDUIT     36.17     0  02:25      0.10    0.02    0.50
  HS02004807HS02004802 CONDUIT     48.08     0  02:22      0.24    0.09    0.29
  YS02001759YS02001757 CONDUIT    181.76     0  03:21      0.23    0.13    1.00
  YS02001762YS02001759 CONDUIT    119.31     0  03:21      0.18    0.14    1.00
  YS02001765YS02001762 CONDUIT    118.38     0  03:35      0.23    0.11    1.00
  YS02001770YS02001767 CONDUIT    135.81     0  03:55      0.31    0.54    1.00
  YS02001774YS02001770 CONDUIT     94.41     0  03:56      0.14    0.06    1.00
  YS02001779YS02001774 CONDUIT     90.06     0  03:54      0.12    0.05    1.00
  YS02001649YS02001757 CONDUIT    312.77     0  03:16      0.40    0.19    1.00
  YS02001767YS02001765 CONDUIT     96.78     0  02:50      0.25    0.12    1.00
  YS02006561YS02001783 CONDUIT    293.07     0  03:00      1.75    0.15    0.37
  YS02001783YS02001784 CONDUIT    293.10     0  03:00      1.21    0.40    0.49
  YS02001784YS02001785 CONDUIT    294.26     0  03:01      1.28    0.68    0.47
  YS02001788YS02001790 CONDUIT    296.57     0  03:02      1.84    0.22    0.38
  YS02001790YS02001791 CONDUIT    340.94     0  03:05      2.22    0.37    0.54
  YS02001791YS02001793 CONDUIT    562.72     0  03:10      4.29    0.24    0.84
  YS02001910YS02001907 CONDUIT     91.28     0  03:02      0.49    0.05    0.72
  YS02001786YS02001788 CONDUIT    294.77     0  03:01      1.71    0.57    0.38
  YS02001915YS02001910 CONDUIT     91.19     0  03:01      0.44    0.05    0.51
  YS02001918YS02001915 CONDUIT     30.85     0  03:03      0.44    0.02    0.25
  YS02001923YS02001920 CONDUIT     28.02     0  03:02      0.43    0.01    0.14
  YS02001926YS02001923 CONDUIT     27.98     0  03:02      0.47    0.04    0.13
  YS02001929YS02001926 CONDUIT     28.00     0  03:01      0.50    0.01    0.12
  YS02001920YS02001918 CONDUIT     30.87     0  03:03      0.45    0.03    0.14
  YS02001629YS02163301 CONDUIT     95.35     0  03:45      0.13    0.12    1.00
  YS02001619YS02001622 CONDUIT    100.26     0  04:12      0.63    0.15    1.00
  YS02001622YS02001625 CONDUIT    105.17     0  03:43      0.24    0.06    1.00
  YS02001625YS02001629 CONDUIT    131.92     0  03:49      0.24    0.06    1.00
  YS02163301YS02001633 CONDUIT     74.07     0  03:17      0.10    0.07    1.00
  YS02163601YS02164001 CONDUIT    156.19     0  03:27      0.20    0.14    1.00
  YS02164001YS02001641 CONDUIT    160.32     0  03:40      0.21    0.22    1.00
  YS02001641YS02001644 CONDUIT    150.60     0  03:28      0.20    0.49    1.00
  YS02001647YS02001649 CONDUIT    240.56     0  03:57      0.32    0.13    1.00
  YS02006553YS02006556 CONDUIT    200.57     0  03:03      0.30    0.17    0.80
  YS02006556YS02006558 CONDUIT    200.77     0  03:03      0.29    0.16    0.83
  YSB6556YSB1171       CONDUIT     11.52     0  02:21      0.05    0.01    0.56
  YS02001907YS02006553 CONDUIT    200.29     0  03:02      0.24    0.24    0.91
  YS02006558YS02006561 CONDUIT    293.07     0  03:00      2.25    0.65    0.47
  YS02001633YS02163601 CONDUIT    148.85     0  03:57      0.19    0.16    1.00
  YS02001644YS02001647 CONDUIT    202.43     0  03:27      0.28    0.12    1.00
  YS02001745YS02001748 CONDUIT    113.02     0  05:46      1.38    0.04    0.76
  YS02001748YS02001751 CONDUIT    226.07     0  03:35      1.06    0.11    1.00
  YS02001751YS02001754 CONDUIT    130.02     0  04:19      0.94    0.06    1.00
  YS02001754YS02001757 CONDUIT    196.02     0  03:32      0.33    0.08    1.00
  YS02001882YS02001884 CONDUIT      3.54     0  02:08      0.06    0.00    0.45
  YS02001884YS02001887 CONDUIT     10.12     0  02:08      0.06    0.01    0.54
  YS02001890YS02001895 CONDUIT    110.03     0  02:51      0.28    0.05    0.51
  YS02001895YS02001898 CONDUIT    109.89     0  02:52      0.47    0.19    0.37
  YS02001898YS02001901 CONDUIT    109.75     0  02:52      0.32    0.07    0.45
  YS02001901YS02001904 CONDUIT    109.38     0  02:53      0.28    0.17    0.50
  YS02001904YS02001907 CONDUIT    109.43     0  02:55      0.20    0.04    0.66
  YS02001887YS02001890 CONDUIT    110.35     0  02:49      0.23    0.19    0.59
  YS02001652YS02001649 CONDUIT    217.64     0  03:39      0.31    0.11    1.00
  YS02001655YS02001652 CONDUIT    108.95     0  03:16      1.01    0.05    1.00
  YS02001658YS02001655 CONDUIT    218.04     0  03:37      1.22    0.09    0.98
  YS02001661YS02001658 CONDUIT    103.48     0  05:04      1.42    0.04    0.79
  YS02001664YS02001661 CONDUIT     78.70     0  02:49      1.07    0.02    0.43
  YSB1154YSB6556       CONDUIT     11.39     0  02:18      0.19    0.02    0.45
  YSB1174YSB1171       CONDUIT     10.50     0  02:12      0.05    0.02    0.56
  YSB1171HS02004479    CONDUIT     21.12     0  02:20      0.54    0.01    0.43
  HS02004881HS02006253 CONDUIT     34.41     0  02:19      1.59    0.01    0.10
  YS02001793JiankangQianchi CONDUIT    677.49     0  03:34     12.29    0.05    1.00
  YS02001757CaochengTiaoxuchi CONDUIT    489.79     0  03:03      1.05    0.22    1.00
  WSF200WS02003060     CONDUIT    459.13     0  02:43      1.68    0.10    0.30
  1                    CONDUIT    713.80     0  03:20      3.03    0.25    0.34
  2                    CONDUIT      0.00     0  00:00      0.00    0.00    0.00
  3                    CONDUIT    597.65     0  00:00     10.05    0.95    0.86
  4                    CONDUIT      0.00     0  00:00      0.00    0.00    0.00
  CC-Pump-1            PUMP       200.00     0  02:25              1.00
  CC-Pump-2            PUMP         0.00     0  00:00              0.00
  JK-Pump-1            PUMP       300.00     0  00:00              1.00
  JK-Pump-2            PUMP       300.00     0  00:00              1.00
  XR-Pump-1            PUMP        95.00     0  02:20              1.00
  XR-Pump-2            PUMP        95.00     0  00:00              1.00
  XR-Pump-3            PUMP        95.00     0  00:00              1.00
  XR-Pump-4            PUMP        95.00     0  00:00              1.00
  
  
  ***************************
  Flow Classification Summary
  ***************************
  
  -------------------------------------------------------------------------------------
                      Adjusted    ---------- Fraction of Time in Flow Class ---------- 
                       /Actual         Up    Down  Sub   Sup   Up    Down  Norm  Inlet 
  Conduit               Length    Dry  Dry   Dry   Crit  Crit  Crit  Crit  Ltd   Ctrl  
  -------------------------------------------------------------------------------------
  WS02003066WSF200        1.00   0.09  0.00  0.00  0.00  0.91  0.00  0.00  0.71  0.00
  WS02006287WS02006284    1.00   0.05  0.02  0.00  0.62  0.31  0.00  0.00  0.78  0.00
  WS02006284WS02006280    1.00   0.05  0.00  0.00  0.00  0.00  0.00  0.95  0.00  0.00
  WS02006280WS02006229    1.00   0.05  0.00  0.00  0.00  0.00  0.00  0.95  0.00  0.00
  WS02006229WS02006228    1.00   0.00  0.00  0.00  0.98  0.00  0.00  0.02  0.00  0.00
  WS02006256WS02006235    1.00   0.00  0.00  0.00  0.99  0.01  0.00  0.00  0.00  0.00
  WS02006253WS02006251    1.00   0.03  0.02  0.00  0.95  0.00  0.00  0.00  0.00  0.00
  WS02006252WS02006251    1.00   0.11  0.06  0.00  0.00  0.00  0.83  0.00  0.00  0.00
  WS02006251WS02006249    1.00   0.00  0.00  0.00  1.00  0.00  0.00  0.00  0.70  0.00
  WS02006249WS02006248    1.00   0.00  0.02  0.00  0.48  0.00  0.49  0.00  0.00  0.00
  WS02006248WS02006247    1.00   0.03  0.00  0.00  0.96  0.00  0.00  0.01  0.60  0.00
  WS02006247WS02006245    1.00   0.03  0.00  0.00  0.95  0.00  0.00  0.02  0.00  0.00
  WS02006245WS02006243    1.00   0.02  0.00  0.00  0.91  0.00  0.00  0.06  0.05  0.00
  WS02006243WS02006242    1.00   0.01  0.01  0.00  0.98  0.00  0.00  0.00  0.27  0.00
  WS02006242WS02006240    1.00   0.01  0.00  0.00  0.99  0.00  0.00  0.00  0.00  0.00
  WS02006240WS02006239    1.00   0.00  0.00  0.00  0.93  0.00  0.00  0.06  0.02  0.00
  WS02006239WS02006238    1.00   0.00  0.00  0.00  1.00  0.00  0.00  0.00  0.00  0.00
  WS02006238WS02006235    1.00   0.00  0.00  0.00  1.00  0.00  0.00  0.00  0.00  0.00
  WS02006235WS02006234    1.00   0.00  0.00  0.00  0.93  0.00  0.07  0.00  0.00  0.00
  WS02006234WS02006232    1.00   0.00  0.00  0.00  0.99  0.01  0.00  0.00  0.00  0.00
  WS02006232WS02006231    1.00   0.00  0.00  0.00  0.99  0.00  0.01  0.00  0.00  0.00
  WS02006231WS02006230    1.00   0.01  0.00  0.00  0.34  0.00  0.65  0.00  0.00  0.00
  WS02006230WS02006229    1.00   0.00  0.00  0.00  0.98  0.00  0.00  0.02  0.01  0.00
  WS02006228WS02006109    1.00   0.00  0.00  0.00  0.99  0.00  0.00  0.00  0.00  0.00
  WS02006116WS02004401    1.00   0.03  0.00  0.00  0.97  0.00  0.00  0.00  0.00  0.00
  WS02006115WS02006116    1.00   0.03  0.00  0.00  0.96  0.00  0.00  0.02  0.01  0.00
  WS02006113WS02006111    1.00   0.02  0.00  0.00  0.00  0.98  0.00  0.00  0.18  0.00
  WS02006112WS02006115    1.00   0.02  0.00  0.00  0.97  0.00  0.00  0.00  0.00  0.00
  WS02006111WS02006112    1.00   0.02  0.00  0.00  0.97  0.00  0.00  0.00  0.98  0.00
  WS02006110WS02006113    1.00   0.02  0.00  0.00  0.98  0.00  0.00  0.00  0.00  0.00
  WS02006109WS02006110    1.00   0.00  0.02  0.00  0.98  0.00  0.00  0.00  0.00  0.00
  WS02004411WS02004412    1.00   0.07  0.00  0.00  0.93  0.00  0.00  0.00  0.00  0.00
  WS02004401WS02004402    1.00   0.03  0.00  0.00  0.97  0.00  0.00  0.00  0.00  0.00
  WS02004413WS02003067    1.00   0.07  0.02  0.00  0.00  0.00  0.91  0.00  0.00  0.00
  WS02004412WS02004413    1.00   0.07  0.00  0.00  0.93  0.00  0.00  0.00  0.03  0.00
  WS02004410WS02004411    1.00   0.07  0.00  0.00  0.93  0.00  0.00  0.00  0.01  0.00
  WS02004409WS02004410    1.00   0.07  0.00  0.00  0.93  0.00  0.00  0.00  0.00  0.00
  WS02004407WS02004409    1.00   0.07  0.00  0.00  0.93  0.00  0.00  0.00  0.80  0.00
  WS02004406WS02004407    1.00   0.00  0.06  0.00  0.93  0.00  0.00  0.00  0.00  0.00
  WS02004405WS02004406    1.00   0.00  0.00  0.00  1.00  0.00  0.00  0.00  0.02  0.00
  WS02004404WS02004405    1.00   0.00  0.00  0.00  1.00  0.00  0.00  0.00  0.00  0.00
  WS02004403WS02004404    1.00   0.00  0.03  0.00  0.97  0.00  0.00  0.00  0.02  0.00
  WS02004402WS02004403    1.00   0.03  0.00  0.00  0.97  0.00  0.00  0.00  0.00  0.00
  WS02004139WS02001211    1.00   0.00  0.00  0.00  0.99  0.00  0.01  0.00  0.00  0.00
  WS02004138WS02004139    1.00   0.00  0.00  0.00  0.98  0.01  0.00  0.00  1.00  0.00
  WS02003067WS02003066    1.00   0.09  0.01  0.00  0.91  0.00  0.00  0.00  0.00  0.00
  WS02001213WS02003059    1.00   0.01  0.01  0.00  0.99  0.00  0.00  0.00  0.00  0.00
  WS02001212WS02001213    1.00   0.01  0.00  0.00  0.49  0.00  0.50  0.00  0.00  0.00
  WS02001211WS02001212    1.00   0.00  0.01  0.00  0.99  0.00  0.00  0.00  0.00  0.00
  WS02003072WS02003073    1.00   0.00  0.00  0.00  0.00  0.00  0.00  1.00  0.00  0.00
  WS02003069WS02003072    1.00   0.00  0.00  0.00  0.99  0.01  0.00  0.00  0.63  0.00
  WS02003060WS02003069    1.00   0.00  0.00  0.00  0.97  0.03  0.00  0.00  0.06  0.00
  WS02003059WS02003060    1.00   0.00  0.00  0.00  0.99  0.01  0.00  0.00  0.01  0.00
  HS02004901HS02004770    1.00   0.05  0.00  0.00  0.95  0.00  0.00  0.00  0.02  0.00
  HS02004876HS02004881    1.00   0.03  0.00  0.00  0.97  0.00  0.00  0.00  0.00  0.00
  HS02004870HS02004876    1.00   0.01  0.00  0.00  0.99  0.00  0.00  0.00  0.95  0.00
  HS02004842HS02004848    1.00   0.00  0.05  0.00  0.95  0.00  0.00  0.00  0.69  0.00
  HS02004837HS02004842    1.00   0.00  0.00  0.00  0.99  0.01  0.00  0.00  0.11  0.00
  HS02004830HS02004837    1.00   0.00  0.00  0.00  1.00  0.00  0.00  0.00  0.99  0.00
  HS02004824HS02004830    1.00   0.00  0.00  0.00  1.00  0.00  0.00  0.00  0.00  0.00
  HS02004817HS02004824    1.00   0.00  0.00  0.00  1.00  0.00  0.00  0.00  1.00  0.00
  HS02004770HS02004777    1.00   0.00  0.05  0.00  0.95  0.00  0.00  0.00  0.07  0.00
  HS02004799HS02004480    1.00   0.01  0.02  0.00  0.93  0.00  0.04  0.00  0.00  0.00
  HS02004792HS02004799    1.00   0.00  0.00  0.00  0.98  0.02  0.00  0.00  0.98  0.00
  HS02004788HS02004792    1.00   0.00  0.00  0.00  0.98  0.02  0.00  0.00  0.98  0.00
  HS02004785HS02004788    1.00   0.00  0.00  0.00  1.00  0.00  0.00  0.00  0.00  0.00
  HS02004777HS02004785    1.00   0.00  0.00  0.00  1.00  0.00  0.00  0.00  0.21  0.00
  HS02004480HS02004478    1.00   0.06  0.00  0.00  0.67  0.00  0.00  0.27  0.00  0.00
  HS02004479HS02004480    1.00   0.03  0.00  0.00  0.97  0.00  0.00  0.00  0.16  0.00
  HS02004862HS02004870    1.00   0.00  0.00  0.00  1.00  0.00  0.00  0.00  0.06  0.00
  HS02004848HS02004852    1.00   0.05  0.00  0.00  0.95  0.00  0.00  0.00  0.70  0.00
  HS02004856HS02004862    1.00   0.00  0.08  0.00  0.92  0.00  0.00  0.00  0.74  0.00
  HS02004852HS02004856    1.00   0.05  0.01  0.00  0.94  0.00  0.00  0.00  0.83  0.00
  HS02004802HS02004478    1.00   0.05  0.01  0.00  0.94  0.00  0.00  0.00  0.01  0.00
  HS02004478WS02006287    1.00   0.07  0.00  0.00  0.86  0.07  0.00  0.00  0.80  0.00
  HS02004817HS02004807    1.00   0.00  0.05  0.00  0.95  0.00  0.00  0.00  0.00  0.00
  HS02004807HS02004802    1.00   0.05  0.00  0.00  0.94  0.00  0.00  0.00  0.01  0.00
  YS02001759YS02001757    1.00   0.00  0.00  0.00  1.00  0.00  0.00  0.00  0.17  0.00
  YS02001762YS02001759    1.00   0.00  0.00  0.00  1.00  0.00  0.00  0.00  0.04  0.00
  YS02001765YS02001762    1.00   0.00  0.00  0.00  1.00  0.00  0.00  0.00  0.22  0.00
  YS02001770YS02001767    1.00   0.00  0.00  0.00  1.00  0.00  0.00  0.00  0.00  0.00
  YS02001774YS02001770    1.00   0.00  0.06  0.00  0.94  0.00  0.00  0.00  0.07  0.00
  YS02001779YS02001774    1.00   0.00  0.00  0.00  1.00  0.00  0.00  0.00  0.27  0.00
  YS02001649YS02001757    1.00   0.00  0.00  0.00  1.00  0.00  0.00  0.00  0.19  0.00
  YS02001767YS02001765    1.00   0.00  0.00  0.00  1.00  0.00  0.00  0.00  0.01  0.00
  YS02006561YS02001783    1.00   0.09  0.00  0.00  0.00  0.91  0.00  0.00  0.73  0.00
  YS02001783YS02001784    1.00   0.00  0.09  0.00  0.91  0.00  0.00  0.00  0.00  0.00
  YS02001784YS02001785    1.00   0.00  0.00  0.00  1.00  0.00  0.00  0.00  0.25  0.00
  YS02001788YS02001790    1.00   0.00  0.00  0.00  0.09  0.91  0.00  0.00  0.79  0.00
  YS02001790YS02001791    1.00   0.00  0.00  0.00  0.08  0.92  0.00  0.00  0.49  0.00
  YS02001791YS02001793    1.00   0.00  0.00  0.00  0.14  0.86  0.00  0.00  0.04  0.00
  YS02001910YS02001907    1.00   0.00  0.00  0.00  0.97  0.00  0.00  0.02  0.13  0.00
  YS02001786YS02001788    1.00   0.00  0.00  0.00  0.09  0.91  0.00  0.00  0.00  0.00
  YS02001915YS02001910    1.00   0.00  0.00  0.00  1.00  0.00  0.00  0.00  0.24  0.00
  YS02001918YS02001915    1.00   0.00  0.01  0.00  0.98  0.01  0.00  0.00  0.81  0.00
  YS02001923YS02001920    1.00   0.00  0.00  0.00  1.00  0.00  0.00  0.00  1.00  0.00
  YS02001926YS02001923    1.00   0.00  0.04  0.00  0.00  0.00  0.96  0.00  0.00  0.00
  YS02001929YS02001926    1.00   0.00  0.05  0.00  0.95  0.00  0.00  0.00  0.87  0.00
  YS02001920YS02001918    1.00   0.00  0.01  0.00  0.99  0.00  0.00  0.00  0.00  0.00
  YS02001629YS02163301    1.00   0.07  0.01  0.00  0.92  0.00  0.00  0.00  0.00  0.00
  YS02001619YS02001622    1.00   0.05  0.00  0.00  0.95  0.00  0.00  0.00  0.00  0.00
  YS02001622YS02001625    1.00   0.05  0.00  0.00  0.95  0.00  0.00  0.00  0.13  0.00
  YS02001625YS02001629    1.00   0.05  0.03  0.00  0.89  0.00  0.02  0.00  0.00  0.00
  YS02163301YS02001633    1.00   0.00  0.07  0.00  0.93  0.00  0.00  0.00  0.00  0.00
  YS02163601YS02164001    1.00   0.00  0.04  0.00  0.96  0.00  0.00  0.00  0.00  0.00
  YS02164001YS02001641    1.00   0.02  0.02  0.00  0.96  0.00  0.00  0.00  0.07  0.00
  YS02001641YS02001644    1.00   0.00  0.01  0.00  0.99  0.00  0.00  0.00  0.00  0.00
  YS02001647YS02001649    1.00   0.00  0.08  0.00  0.92  0.00  0.00  0.00  0.01  0.00
  YS02006553YS02006556    1.00   0.02  0.00  0.00  0.98  0.00  0.00  0.00  0.03  0.00
  YS02006556YS02006558    1.00   0.00  0.01  0.00  0.99  0.00  0.00  0.00  0.00  0.00
  YSB6556YSB1171          1.00   0.03  0.02  0.00  0.95  0.00  0.00  0.00  0.00  0.00
  YS02001907YS02006553    1.00   0.01  0.02  0.00  0.97  0.00  0.00  0.00  0.00  0.00
  YS02006558YS02006561    1.00   0.09  0.00  0.00  0.00  0.91  0.00  0.00  0.72  0.00
  YS02001633YS02163601    1.00   0.00  0.02  0.00  0.98  0.00  0.00  0.00  0.20  0.00
  YS02001644YS02001647    1.00   0.00  0.08  0.00  0.92  0.00  0.00  0.00  0.00  0.00
  YS02001745YS02001748    1.00   0.00  0.00  0.00  0.79  0.04  0.00  0.17  0.28  0.00
  YS02001748YS02001751    1.00   0.00  0.00  0.00  0.96  0.04  0.00  0.00  0.25  0.00
  YS02001751YS02001754    1.00   0.00  0.00  0.00  0.91  0.00  0.00  0.09  0.02  0.00
  YS02001754YS02001757    1.00   0.00  0.00  0.00  0.99  0.01  0.00  0.00  0.26  0.00
  YS02001882YS02001884    1.00   0.07  0.01  0.00  0.93  0.00  0.00  0.00  0.00  0.00
  YS02001884YS02001887    1.00   0.03  0.01  0.00  0.95  0.00  0.00  0.00  0.00  0.00
  YS02001890YS02001895    1.00   0.01  0.07  0.00  0.92  0.00  0.00  0.00  0.00  0.00
  YS02001895YS02001898    1.00   0.08  0.00  0.00  0.91  0.00  0.01  0.00  0.00  0.00
  YS02001898YS02001901    1.00   0.07  0.01  0.00  0.92  0.00  0.00  0.00  0.02  0.00
  YS02001901YS02001904    1.00   0.07  0.00  0.00  0.93  0.00  0.00  0.00  0.00  0.00
  YS02001904YS02001907    1.00   0.01  0.07  0.00  0.93  0.00  0.00  0.00  0.00  0.00
  YS02001887YS02001890    1.00   0.00  0.01  0.00  0.97  0.00  0.02  0.00  0.00  0.00
  YS02001652YS02001649    1.00   0.00  0.00  0.00  1.00  0.00  0.00  0.00  0.26  0.00
  YS02001655YS02001652    1.00   0.00  0.00  0.00  0.91  0.00  0.00  0.09  0.02  0.00
  YS02001658YS02001655    1.00   0.00  0.07  0.00  0.89  0.04  0.00  0.00  0.13  0.00
  YS02001661YS02001658    1.00   0.07  0.00  0.00  0.80  0.14  0.00  0.00  0.29  0.00
  YS02001664YS02001661    1.00   0.05  0.00  0.00  0.74  0.21  0.00  0.00  0.73  0.00
  YSB1154YSB6556          1.00   0.05  0.00  0.00  0.95  0.00  0.00  0.00  0.02  0.00
  YSB1174YSB1171          1.00   0.03  0.01  0.00  0.96  0.00  0.00  0.00  0.00  0.00
  YSB1171HS02004479       1.00   0.03  0.00  0.00  0.97  0.00  0.00  0.00  0.13  0.00
  HS02004881HS02006253    1.00   0.03  0.00  0.00  0.39  0.01  0.00  0.57  0.23  0.00
  YS02001793JiankangQianchi    1.00   0.00  0.00  0.00  0.30  0.69  0.00  0.00  0.08  0.00
  YS02001757CaochengTiaoxuchi    1.00   0.00  0.11  0.00  0.89  0.00  0.00  0.00  0.00  0.00
  WSF200WS02003060        1.00   0.00  0.09  0.00  0.70  0.21  0.00  0.00  0.44  0.00
  1                       1.00   0.00  0.00  0.00  0.00  1.00  0.00  0.00  0.20  0.00
  2                       1.00   1.00  0.00  0.00  0.00  0.00  0.00  0.00  0.00  0.00
  3                       1.00   0.17  0.00  0.00  0.00  0.83  0.00  0.00  0.04  0.00
  4                       1.00   1.00  0.00  0.00  0.00  0.00  0.00  0.00  0.00  0.00
  
  
  *************************
  Conduit Surcharge Summary
  *************************
  
  ----------------------------------------------------------------------------
                                                           Hours        Hours 
                         --------- Hours Full --------   Above Full   Capacity
  Conduit                Both Ends  Upstream  Dnstream   Normal Flow   Limited
  ----------------------------------------------------------------------------
  WS02006229WS02006228        0.50      0.60      0.50      1.89         0.50
  WS02006256WS02006235        5.62      5.62      7.83      5.37         0.01
  WS02006249WS02006248        0.01      0.01      0.01      1.65         0.01
  WS02006247WS02006245        0.01      0.01      0.01      1.83         0.01
  WS02006235WS02006234        0.01      0.01      0.01      5.65         0.01
  WS02006231WS02006230        0.01      0.01      0.01      5.61         0.01
  WS02006230WS02006229        1.26      1.66      1.26      5.68         1.26
  WS02006228WS02006109        0.55      0.84      0.55      2.21         0.55
  WS02006111WS02006112        0.01      0.01      1.91      0.01         0.01
  WS02006110WS02006113        0.01      0.01      0.70      0.01         0.01
  WS02006109WS02006110        0.01      0.01      0.84      0.01         0.01
  WS02004404WS02004405        0.01      0.01      0.01      5.58         0.01
  WS02003072WS02003073        0.01      0.01      0.01      1.95         0.01
  YS02001759YS02001757        4.98      4.98      5.23      0.01         0.01
  YS02001762YS02001759        4.32      4.32      4.98      0.01         0.01
  YS02001765YS02001762        3.90      3.90      4.32      0.01         0.01
  YS02001770YS02001767        3.74      3.76      3.78      0.01         0.52
  YS02001774YS02001770        3.64      3.64      4.00      0.01         0.01
  YS02001779YS02001774        2.59      2.59      4.00      0.01         0.01
  YS02001649YS02001757        4.68      4.68      5.23      0.01         0.01
  YS02001767YS02001765        3.78      3.78      3.90      0.01         0.01
  YS02001791YS02001793        0.01      0.01      0.45      0.01         0.01
  YS02001629YS02163301        3.58      3.58      3.68      0.01         0.01
  YS02001619YS02001622        1.28      1.28      1.44      0.01         0.01
  YS02001622YS02001625        1.44      1.44      2.96      0.01         0.01
  YS02001625YS02001629        1.28      1.28      2.96      0.01         0.01
  YS02163301YS02001633        3.68      3.68      3.92      0.01         0.01
  YS02163601YS02164001        3.87      3.87      4.55      0.01         0.01
  YS02164001YS02001641        3.87      3.87      3.93      0.01         0.01
  YS02001641YS02001644        3.92      3.93      3.97      0.01         0.32
  YS02001647YS02001649        2.93      2.93      4.68      0.01         0.01
  YS02001633YS02163601        3.82      3.82      4.55      0.01         0.01
  YS02001644YS02001647        2.93      2.93      3.97      0.01         0.01
  YS02001748YS02001751        0.16      0.16      1.59      0.01         0.01
  YS02001751YS02001754        1.58      1.58      2.70      0.01         0.01
  YS02001754YS02001757        2.97      2.97      5.23      0.01         0.01
  YS02001652YS02001649        3.01      3.01      4.68      0.01         0.01
  YS02001655YS02001652        1.77      1.77      2.85      0.01         0.01
  YS02001658YS02001655        0.01      0.01      1.77      0.01         0.01
  YS02001793JiankangQianchi        0.27      0.27      1.23      0.01         0.01
  YS02001757CaochengTiaoxuchi        0.78      0.78      5.23      0.01         0.01
  3                           0.01      0.01      0.01      0.01         0.01
  
  
  ***************
  Pumping Summary
  ***************
  
  ---------------------------------------------------------------------------------------------------------
                                                  Min       Avg       Max     Total     Power    % Time Off
                        Percent   Number of      Flow      Flow      Flow    Volume     Usage    Pump Curve
  Pump                 Utilized   Start-Ups       LPS       LPS       LPS  10^6 ltr     Kw-hr    Low   High
  ---------------------------------------------------------------------------------------------------------
  CC-Pump-1               27.76           2      0.00    173.17    200.00     1.349      4.84    0.0   54.8
  CC-Pump-2                0.00           0      0.00      0.00      0.00     0.000      0.00    0.0    0.0
  JK-Pump-1               87.24           3      0.00    118.29    300.00     1.864     33.02    0.0    0.0
  JK-Pump-2               91.49           3      0.00    147.87    300.00     2.411     37.45    0.0    0.0
  XR-Pump-1               17.01           2      0.00     72.30     95.00     0.342      4.93    0.0    0.0
  XR-Pump-2               42.56           3      0.00     75.97     95.00     0.998     15.94    0.0    0.0
  XR-Pump-3               89.35           4      0.00     85.72     95.00     2.223     23.73    0.0    0.0
  XR-Pump-4               93.61           4      0.00     86.45     95.00     2.337     25.65    0.0    0.0
  

  Analysis begun on:  Tue Dec 21 16:32:15 2021
  Analysis ended on:  Tue Dec 21 16:32:17 2021
  Total elapsed time: 00:00:02