
  EPA STORM WATER MANAGEMENT MODEL - VERSION 5.1 (Build 5.3.0.dev0)
  --------------------------------------------------------------

  WARNING 04: minimum elevation drop used for Conduit WS02004404WS02004405
  WARNING 03: negative offset ignored for Link YS02001904YS02001907
  
  *********************************************************
  NOTE: The summary statistics displayed in this report are
  based on results found at every computational time step,  
  not just on results from each reporting time step.
  *********************************************************
  
  ****************
  Analysis Options
  ****************
  Flow Units ............... LPS
  Process Models:
    Rainfall/Runoff ........ YES
    RDII ................... NO
    Snowmelt ............... NO
    Groundwater ............ NO
    Flow Routing ........... YES
    Ponding Allowed ........ NO
    Water Quality .......... NO
  Infiltration Method ...... HORTON
  Flow Routing Method ...... DYNWAVE
  Surcharge Method ......... EXTRAN
  Starting Date ............ 08/28/2015 08:00:00
  Ending Date .............. 08/28/2015 15:50:00
  Antecedent Dry Days ...... 8.0
  Report Time Step ......... 00:01:00
  Wet Time Step ............ 00:01:00
  Dry Time Step ............ 00:01:00
  Routing Time Step ........ 5.00 sec
  Variable Time Step ....... YES
  Maximum Trials ........... 8
  Number of Threads ........ 4
  Head Tolerance ........... 0.001500 m
  
  
  **************************        Volume         Depth
  Runoff Quantity Continuity     hectare-m            mm
  **************************     ---------       -------
  Total Precipitation ......         3.047         6.671
  Evaporation Loss .........         0.000         0.000
  Infiltration Loss ........         0.769         1.684
  Surface Runoff ...........         1.365         2.989
  Final Storage ............         0.913         1.999
  Continuity Error (%) .....        -0.018
  
  
  **************************        Volume        Volume
  Flow Routing Continuity        hectare-m      10^6 ltr
  **************************     ---------     ---------
  Dry Weather Inflow .......         0.616         6.165
  Wet Weather Inflow .......         1.365        13.646
  Groundwater Inflow .......         0.000         0.000
  RDII Inflow ..............         0.000         0.000
  External Inflow ..........         0.102         1.024
  External Outflow .........         1.515        15.153
  Flooding Loss ............         0.116         1.158
  Evaporation Loss .........         0.000         0.000
  Exfiltration Loss ........         0.000         0.000
  Initial Stored Volume ....         0.076         0.761
  Final Stored Volume ......         0.633         6.333
  Continuity Error (%) .....        -4.858
  
  
  *************************
  Highest Continuity Errors
  *************************
  Node YS02001774 (26.95%)
  Node JK-storage (-26.13%)
  Node HS02004842 (26.05%)
  Node YS02001884 (20.60%)
  Node YSB1171 (6.05%)
  
  
  ***************************
  Time-Step Critical Elements
  ***************************
  Link WS02006252WS02006251 (51.40%)
  Link 3 (40.09%)
  Link WS02006280WS02006229 (2.12%)
  
  
  ********************************
  Highest Flow Instability Indexes
  ********************************
  Link WS02006113WS02006111 (50)
  Link WS02006111WS02006112 (20)
  Link YS02006558YS02006561 (18)
  Link YS02001779YS02001774 (17)
  Link YS02001774YS02001770 (16)
  
  
  *************************
  Routing Time Step Summary
  *************************
  Minimum Time Step           :     0.50 sec
  Average Time Step           :     1.06 sec
  Maximum Time Step           :     5.00 sec
  Percent in Steady State     :    -0.00
  Average Iterations per Step :     3.65
  Percent Not Converging      :    18.77
  
  
  ***************************
  Subcatchment Runoff Summary
  ***************************
  
  ------------------------------------------------------------------------------------------------------------------------------
                            Total      Total      Total      Total     Imperv       Perv      Total       Total     Peak  Runoff
                           Precip      Runon       Evap      Infil     Runoff     Runoff     Runoff      Runoff   Runoff   Coeff
  Subcatchment                 mm         mm         mm         mm         mm         mm         mm    10^6 ltr      LPS
  ------------------------------------------------------------------------------------------------------------------------------
  sub0                       6.67       0.00       0.00       0.47       4.94       0.00       4.94        0.00     1.69   0.740
  sub1                       6.67       0.00       0.00       0.73       4.68       0.00       4.68        0.03     8.99   0.702
  sub2                       6.67       0.00       0.00       2.47       3.30       0.00       3.30        0.03     7.97   0.494
  sub3                       6.67       0.00       0.00       2.47       3.26       0.00       3.26        0.07    16.48   0.489
  sub4                       6.67       0.00       0.00       0.73       4.54       0.00       4.54        0.09    18.57   0.681
  sub5                       6.67       0.00       0.00       0.47       4.89       0.00       4.89        0.06    15.99   0.733
  sub7                       6.67       0.00       0.00       0.60       4.82       0.00       4.82        0.02     5.61   0.722
  sub8                       6.67       0.00       0.00       0.60       4.81       0.00       4.81        0.03     9.92   0.721
  sub9                       6.67       0.00       0.00       0.60       4.80       0.00       4.80        0.02     7.36   0.720
  sub10                      6.67       0.00       0.00       0.53       4.85       0.00       4.85        0.05    15.94   0.726
  sub11                      6.67       0.00       0.00       0.53       4.86       0.00       4.86        0.06    18.64   0.729
  sub12                      6.67       0.00       0.00       0.87       4.62       0.00       4.62        0.04    15.69   0.692
  sub14                      6.67       0.00       0.00       0.60       4.80       0.00       4.80        0.05    14.38   0.720
  sub15                      6.67       0.00       0.00       2.00       3.69       0.00       3.69        0.06    19.52   0.553
  sub16                      6.67       0.00       0.00       2.20       3.55       0.00       3.55        0.04    13.83   0.532
  sub17                      6.67       0.00       0.00       2.13       3.60       0.00       3.60        0.03    11.18   0.540
  sub22                      6.67       0.00       0.00       2.87       3.01       0.00       3.01        0.19    63.78   0.452
  sub23                      6.67       0.00       0.00       2.47       3.33       0.00       3.33        0.16    54.27   0.500
  sub60                      6.67       0.00       0.00       0.80       3.35       0.00       3.35        1.02    97.43   0.502
  sub61                      6.67       0.00       0.00       1.13       3.55       0.00       3.55        1.09   121.21   0.532
  sub62                      6.67       0.00       0.00       0.53       3.82       0.00       3.82        1.17   124.17   0.572
  sub63                      6.67       0.00       0.00       1.93       3.15       0.00       3.15        0.95   112.77   0.472
  sub64                      6.67       0.00       0.00       1.00       3.20       0.00       3.20        0.97    92.59   0.480
  sub65                      6.67       0.00       0.00       0.87       3.25       0.00       3.25        1.00    93.99   0.486
  sub66                      6.67       0.00       0.00       1.93       2.79       0.00       2.79        0.85    84.64   0.418
  sub67                      6.67       0.00       0.00       0.53       4.17       0.00       4.17        1.29   158.23   0.624
  sub68                      6.67       0.00       0.00       0.93       3.77       0.00       3.77        1.16   133.74   0.565
  sub69                      6.67       0.00       0.00       1.00       4.04       0.00       4.04        0.94   131.76   0.605
  sub70                      6.67       4.12       0.00       3.67       5.04       0.00       5.04        1.15   109.50   0.467
  sub71                      6.67       0.00       0.00       0.53       3.66       0.00       3.66        0.86    86.93   0.549
  sub72                      6.67       0.00       0.00       0.47       2.64       0.00       2.64        0.54    41.54   0.395
  sub73                      6.67       4.91       0.00       3.94       5.20       0.00       5.20        1.22    94.59   0.449
  sub74                      6.67       0.00       0.00       5.00       1.21       0.00       1.21        0.49    73.30   0.182
  
  
  ******************
  Node Depth Summary
  ******************
  
  ---------------------------------------------------------------------------------
                                 Average  Maximum  Maximum  Time of Max    Reported
                                   Depth    Depth      HGL   Occurrence   Max Depth
  Node                 Type       Meters   Meters   Meters  days hr:min      Meters
  ---------------------------------------------------------------------------------
  WS02001211           JUNCTION     0.65     0.71     5.55     0  03:13        0.71
  WS02001212           JUNCTION     0.38     0.43     5.50     0  03:12        0.43
  WS02001213           JUNCTION     0.59     0.69     5.45     0  02:33        0.69
  WS02003069           JUNCTION     0.41     0.53     5.12     0  02:35        0.53
  WS02003072           JUNCTION     0.48     0.60     4.97     0  02:35        0.60
  WS02003073           JUNCTION     0.28     0.36     4.43     0  02:36        0.36
  WS02003060           JUNCTION     0.37     0.47     5.40     0  02:34        0.47
  WS02003066           JUNCTION     0.21     0.30     5.85     0  02:36        0.30
  WS02003059           JUNCTION     0.65     0.75     5.44     0  02:33        0.75
  WS02003067           JUNCTION     0.53     0.70     6.02     0  02:35        0.70
  WS02004401           JUNCTION     0.62     0.84     6.84     0  02:32        0.84
  WS02004402           JUNCTION     0.66     0.87     6.83     0  02:33        0.87
  WS02004403           JUNCTION     0.68     0.89     6.82     0  02:32        0.89
  WS02004404           JUNCTION     0.75     0.96     6.81     0  02:33        0.96
  WS02004406           JUNCTION     0.76     0.95     6.78     0  02:33        0.95
  WS02004409           JUNCTION     0.44     0.66     6.43     0  02:35        0.66
  WS02004410           JUNCTION     0.46     0.68     6.40     0  02:35        0.68
  WS02004411           JUNCTION     0.48     0.68     6.36     0  02:36        0.68
  WS02004412           JUNCTION     0.50     0.69     6.33     0  02:35        0.69
  WS02004413           JUNCTION     0.65     0.85     6.32     0  02:35        0.85
  WS02004405           JUNCTION     0.75     0.95     6.80     0  02:33        0.95
  WS02006109           JUNCTION     0.70     0.96     7.58     0  02:29        0.96
  WS02006110           JUNCTION     0.70     0.91     7.50     0  02:29        0.91
  WS02006111           JUNCTION     0.20     0.28     6.99     0  02:29        0.28
  WS02006112           JUNCTION     0.79     1.04     6.93     0  02:33        1.04
  WS02006113           JUNCTION     0.31     0.45     7.34     0  02:29        0.45
  WS02006115           JUNCTION     0.51     0.74     6.88     0  02:32        0.74
  WS02006116           JUNCTION     0.60     0.82     6.86     0  02:32        0.82
  WS02006230           JUNCTION     0.64     0.99     7.73     0  02:30        0.99
  WS02006231           JUNCTION     0.42     0.65     7.78     0  02:30        0.65
  WS02006232           JUNCTION     0.55     0.77     7.81     0  02:31        0.77
  WS02006234           JUNCTION     0.46     0.70     7.86     0  02:31        0.70
  WS02006235           JUNCTION     0.49     0.73     7.89     0  02:31        0.73
  WS02006238           JUNCTION     0.51     0.75     7.90     0  02:31        0.75
  WS02006240           JUNCTION     0.39     0.65     7.94     0  02:32        0.65
  WS02006242           JUNCTION     0.43     0.70     7.97     0  02:33        0.70
  WS02006243           JUNCTION     0.30     0.57     7.99     0  02:33        0.57
  WS02006245           JUNCTION     0.27     0.54     8.02     0  02:33        0.54
  WS02006247           JUNCTION     0.27     0.54     8.04     0  02:33        0.54
  WS02006248           JUNCTION     0.23     0.48     8.06     0  02:34        0.48
  WS02006249           JUNCTION     0.26     0.49     8.09     0  02:34        0.49
  WS02006239           JUNCTION     0.45     0.71     7.92     0  02:32        0.71
  WS02006251           JUNCTION     0.25     0.47     8.14     0  02:34        0.47
  WS02006252           JUNCTION     0.22     0.35     8.59     0  02:18        0.35
  WS02006253           JUNCTION     0.27     0.50     8.14     0  02:34        0.50
  WS02006256           JUNCTION     1.03     2.35     9.28     0  00:00        1.19
  WS02004138           JUNCTION     0.15     0.17     7.42     0  00:00        0.17
  WS02004407           JUNCTION     0.20     0.29     6.61     0  02:33        0.29
  WS02006228           JUNCTION     0.69     1.00     7.65     0  02:28        1.00
  WS02006229           JUNCTION     0.66     0.99     7.69     0  02:28        0.99
  WS02006280           JUNCTION     0.06     0.16     8.43     0  02:17        0.16
  WS02006284           JUNCTION     0.35     0.50     8.90     0  02:17        0.50
  WS02006287           JUNCTION     0.09     0.23     9.19     0  02:16        0.23
  WSF200               JUNCTION     0.20     0.31     5.54     0  02:37        0.31
  HS02004901           JUNCTION     0.12     0.25    10.07     0  02:14        0.25
  HS02004881           JUNCTION     0.01     0.03     9.06     0  02:16        0.03
  HS02004876           JUNCTION     0.04     0.11     9.14     0  02:13        0.11
  HS02004870           JUNCTION     0.01     0.05     9.33     0  02:17        0.05
  HS02004862           JUNCTION     0.02     0.05     9.44     0  02:18        0.05
  HS02004856           JUNCTION     0.08     0.11     9.53     0  02:17        0.11
  HS02004852           JUNCTION     0.01     0.03     9.54     0  02:18        0.03
  HS02004848           JUNCTION     0.01     0.03     9.63     0  02:17        0.03
  HS02004842           JUNCTION     0.33     0.36     9.63     0  02:17        0.36
  HS02004837           JUNCTION     0.03     0.05     9.63     0  02:17        0.05
  HS02004830           JUNCTION     0.04     0.07     9.53     0  02:17        0.07
  HS02004824           JUNCTION     0.02     0.04     9.45     0  02:20        0.04
  HS02004817           JUNCTION     0.43     0.54     9.39     0  02:17        0.54
  HS02004807           JUNCTION     0.12     0.22     9.39     0  02:17        0.22
  HS02004802           JUNCTION     0.15     0.25     9.38     0  02:17        0.25
  HS02004799           JUNCTION     0.11     0.28     9.49     0  02:15        0.28
  HS02004792           JUNCTION     0.03     0.11     9.63     0  02:14        0.11
  HS02004788           JUNCTION     0.02     0.08     9.98     0  02:15        0.08
  HS02004785           JUNCTION     0.04     0.15    10.05     0  02:15        0.15
  HS02004777           JUNCTION     0.14     0.27    10.07     0  02:14        0.27
  HS02004770           JUNCTION     0.11     0.24    10.07     0  02:14        0.24
  HS02004480           JUNCTION     0.07     0.22     9.46     0  02:15        0.22
  HS02004479           JUNCTION     0.11     0.26     9.46     0  02:15        0.26
  HS02004478           JUNCTION     0.05     0.14     9.37     0  02:16        0.14
  YS02001745           JUNCTION     0.37     0.84     8.36     0  06:54        0.84
  YS02001748           JUNCTION     0.73     1.28     8.36     0  06:54        1.28
  YS02001751           JUNCTION     0.91     1.73     8.61     0  04:10        1.48
  YS02001754           JUNCTION     1.16     1.78     8.39     0  04:10        1.75
  YS02001762           JUNCTION     1.35     1.97     8.37     0  06:39        1.96
  YS02001765           JUNCTION     1.31     1.92     8.37     0  06:51        1.91
  YS02001767           JUNCTION     1.27     1.88     8.37     0  06:39        1.87
  YS02001770           JUNCTION     1.27     1.88     8.37     0  06:39        1.87
  YS02001774           JUNCTION     1.33     1.95     8.37     0  06:39        1.94
  YS02001779           JUNCTION     1.09     1.68     8.37     0  06:38        1.67
  YS02001882           JUNCTION     0.32     0.52     7.23     0  02:53        0.52
  YS02001884           JUNCTION     0.42     0.62     7.23     0  02:53        0.62
  YS02001759           JUNCTION     1.39     2.00     8.36     0  06:54        1.99
  YS02001887           JUNCTION     0.49     0.70     7.23     0  02:52        0.70
  YS02001890           JUNCTION     0.52     0.72     7.23     0  02:52        0.72
  YS02001898           JUNCTION     0.29     0.48     7.22     0  02:53        0.48
  YS02001901           JUNCTION     0.41     0.61     7.22     0  02:55        0.61
  YS02001904           JUNCTION     0.39     0.58     7.21     0  02:53        0.58
  YS02001907           JUNCTION     0.72     0.92     7.21     0  02:53        0.92
  YS02001910           JUNCTION     0.51     0.71     7.21     0  02:54        0.71
  YS02001915           JUNCTION     0.31     0.49     7.21     0  02:54        0.49
  YS02001918           JUNCTION     0.09     0.14     7.21     0  02:55        0.14
  YS02001619           JUNCTION     0.88     1.47     8.40     0  06:38        1.45
  YS02001629           JUNCTION     1.22     1.84     8.39     0  06:38        1.82
  YS02001641           JUNCTION     1.32     1.93     8.37     0  06:33        1.92
  YS02001644           JUNCTION     1.33     1.92     8.35     0  06:33        1.92
  YS02001652           JUNCTION     1.17     1.77     8.36     0  06:43        1.77
  YS02001655           JUNCTION     0.94     1.69     8.54     0  03:50        1.51
  YS02001920           JUNCTION     0.19     0.23     7.24     0  03:00        0.23
  YS02001923           JUNCTION     0.07     0.09     7.35     0  03:01        0.09
  YS02001926           JUNCTION     0.15     0.19     7.64     0  03:01        0.19
  YS02001929           JUNCTION     0.07     0.10     7.79     0  03:01        0.10
  YS02001658           JUNCTION     0.68     1.22     8.37     0  06:48        1.22
  YS02001661           JUNCTION     0.47     0.96     8.37     0  06:51        0.96
  YS02001664           JUNCTION     0.16     0.44     8.37     0  06:51        0.44
  YS02001622           JUNCTION     0.90     1.49     8.39     0  06:35        1.47
  YS02001633           JUNCTION     1.31     1.93     8.38     0  06:38        1.91
  YS02001649           JUNCTION     1.36     1.97     8.36     0  06:44        1.97
  YS02001757           JUNCTION     1.49     2.10     8.36     0  06:54        2.10
  YS02001895           JUNCTION     0.29     0.48     7.22     0  02:54        0.48
  YS02001625           JUNCTION     1.17     1.78     8.38     0  06:33        1.78
  YS02163301           JUNCTION     1.25     1.87     8.39     0  06:38        1.85
  YS02163601           JUNCTION     1.36     1.98     8.38     0  06:35        1.96
  YS02164001           JUNCTION     1.30     1.91     8.37     0  06:33        1.90
  YS02001647           JUNCTION     1.16     1.75     8.36     0  06:44        1.75
  YSB1154              JUNCTION     0.25     0.41     9.46     0  02:15        0.41
  YSB6556              JUNCTION     0.14     0.29     9.46     0  02:16        0.29
  YSB1174              JUNCTION     0.20     0.35     9.46     0  02:15        0.35
  YSB1171              JUNCTION     0.40     0.56     9.46     0  02:15        0.56
  YS02006553           JUNCTION     0.72     0.93     7.21     0  02:53        0.93
  YS02006561           JUNCTION     0.16     0.26     6.92     0  02:50        0.26
  YS02006556           JUNCTION     0.69     0.90     7.21     0  02:52        0.90
  YS02006558           JUNCTION     0.74     0.94     7.21     0  02:53        0.94
  YS02001783           JUNCTION     0.31     0.73     6.87     0  02:51        0.72
  YS02001784           JUNCTION     0.35     0.82     6.89     0  02:50        0.73
  YS02001786           JUNCTION     0.32     0.77     6.80     0  02:51        0.75
  YS02001788           JUNCTION     0.28     1.09     7.06     0  02:50        0.87
  YS02001790           JUNCTION     0.39     1.96     7.60     0  02:48        1.14
  YS02001791           JUNCTION     0.38     2.72     8.19     0  02:47        1.22
  YS02001793           JUNCTION     0.54     2.70     7.53     0  02:46        1.80
  WS02004139           JUNCTION     0.59     0.65     5.56     0  03:13        0.65
  WSC                  OUTFALL      0.28     0.36     1.03     0  02:36        0.36
  3                    OUTFALL      0.08     0.23     6.23     0  00:00        0.19
  4                    OUTFALL      0.00     0.00     7.00     0  00:00        0.00
  5                    OUTFALL      0.00     0.00     5.00     0  00:00        0.00
  JK-storage           STORAGE      2.17     5.80     6.60     0  02:49        5.80
  CC-storage           STORAGE      0.73     1.36     8.36     0  06:53        1.36
  XR-storage           STORAGE      5.87     7.72     5.72     0  05:47        7.72
  
  
  *******************
  Node Inflow Summary
  *******************
  
  -------------------------------------------------------------------------------------------------
                                  Maximum  Maximum                  Lateral       Total        Flow
                                  Lateral    Total  Time of Max      Inflow      Inflow     Balance
                                   Inflow   Inflow   Occurrence      Volume      Volume       Error
  Node                 Type           LPS      LPS  days hr:min    10^6 ltr    10^6 ltr     Percent
  -------------------------------------------------------------------------------------------------
  WS02001211           JUNCTION      7.35   292.93     0  03:23       0.207        6.82       0.426
  WS02001212           JUNCTION      0.00   293.24     0  03:24           0        6.79       0.242
  WS02001213           JUNCTION      0.00   293.53     0  03:23           0        6.78       0.277
  WS02003069           JUNCTION      0.32   809.28     0  02:34     0.00902        12.8       0.161
  WS02003072           JUNCTION      0.00   809.22     0  02:35           0        12.8       0.214
  WS02003073           JUNCTION      1.82   811.18     0  02:35      0.0514        12.8       0.226
  WS02003060           JUNCTION     16.53   808.92     0  02:34       0.466        12.8       0.156
  WS02003066           JUNCTION      0.00   527.49     0  02:36           0        5.62       0.055
  WS02003059           JUNCTION      0.00   294.06     0  03:23           0        6.76       0.450
  WS02003067           JUNCTION      0.00   527.44     0  02:35           0        5.63       0.124
  WS02004401           JUNCTION      0.00   530.48     0  02:32           0         5.8       0.281
  WS02004402           JUNCTION      0.00   530.20     0  02:32           0        5.79       0.273
  WS02004403           JUNCTION      0.00   529.99     0  02:32           0        5.77       0.254
  WS02004404           JUNCTION      0.16   530.11     0  02:33     0.00457        5.76       0.198
  WS02004406           JUNCTION      0.00   530.16     0  02:32           0        5.73       0.486
  WS02004409           JUNCTION      0.00   530.00     0  02:33           0         5.7       0.176
  WS02004410           JUNCTION      0.00   528.93     0  02:34           0        5.69       0.211
  WS02004411           JUNCTION      0.00   528.13     0  02:34           0        5.68       0.226
  WS02004412           JUNCTION      0.00   527.75     0  02:35           0        5.67       0.258
  WS02004413           JUNCTION      0.00   527.49     0  02:35           0        5.65       0.403
  WS02004405           JUNCTION      0.04   530.10     0  02:32     0.00107        5.75       0.301
  WS02006109           JUNCTION      1.23   525.86     0  02:28      0.0347        5.86       0.317
  WS02006110           JUNCTION      0.00   525.87     0  02:29           0        5.85       0.257
  WS02006111           JUNCTION      0.00   546.04     0  02:29           0        5.82       0.046
  WS02006112           JUNCTION     11.18   535.94     0  02:29      0.0309        5.85       0.382
  WS02006113           JUNCTION      0.00   526.11     0  02:29           0        5.83       0.104
  WS02006115           JUNCTION      0.00   533.82     0  02:32           0        5.83       0.238
  WS02006116           JUNCTION      0.00   531.36     0  02:31           0        5.82       0.239
  WS02006230           JUNCTION     10.28   331.41     0  03:10        0.29        4.84       0.260
  WS02006231           JUNCTION      0.00   320.44     0  03:11           0        4.55       0.072
  WS02006232           JUNCTION      0.00   320.10     0  03:11           0        4.56       0.266
  WS02006234           JUNCTION      0.00   319.66     0  03:11           0        4.56       0.074
  WS02006235           JUNCTION      0.00   319.42     0  03:11           0         4.6       0.178
  WS02006238           JUNCTION      0.00   278.65     0  02:40           0        2.22       0.205
  WS02006240           JUNCTION      0.00   264.93     0  02:41           0        2.21       0.217
  WS02006242           JUNCTION      0.00   258.35     0  02:41           0         2.2       0.245
  WS02006243           JUNCTION      0.00   250.21     0  02:41           0         2.2      -0.060
  WS02006245           JUNCTION      0.00   245.68     0  02:41           0         2.2       0.088
  WS02006247           JUNCTION      0.00   242.66     0  02:23           0         2.2       0.006
  WS02006248           JUNCTION      0.00   244.09     0  02:24           0         2.2      -0.030
  WS02006249           JUNCTION      0.00   245.68     0  02:22           0         2.2       0.058
  WS02006239           JUNCTION      0.00   272.56     0  02:40           0        2.21       0.262
  WS02006251           JUNCTION      0.08   247.89     0  02:19     0.00217         2.2       0.002
  WS02006252           JUNCTION      0.00   200.00     0  02:18           0        2.02       0.003
  WS02006253           JUNCTION      1.69    50.37     0  02:16       0.004       0.175      -0.212
  WS02006256           JUNCTION      0.00   600.00     0  00:00           0        4.78       0.047
  WS02004138           JUNCTION      0.00   285.00     0  00:00           0        6.64       0.065
  WS02004407           JUNCTION      0.00   530.04     0  02:33           0        5.71       0.082
  WS02006228           JUNCTION      0.00   524.63     0  02:28           0        5.84       0.206
  WS02006229           JUNCTION      0.00   524.64     0  02:28           0        5.85       0.165
  WS02006280           JUNCTION      0.00   254.26     0  02:17           0        1.03       0.007
  WS02006284           JUNCTION      0.10   254.24     0  02:16      0.0027        1.03       0.105
  WS02006287           JUNCTION      0.00   254.10     0  02:16           0        1.03       0.071
  WSF200               JUNCTION      0.00   527.51     0  02:36           0        5.62       0.042
  HS02004901           JUNCTION     13.83    13.83     0  02:09      0.0371      0.0373       4.945
  HS02004881           JUNCTION      5.61    49.06     0  02:16      0.0162       0.172       0.205
  HS02004876           JUNCTION      8.99    43.76     0  02:16      0.0311       0.156       0.341
  HS02004870           JUNCTION      9.92    34.94     0  02:16      0.0307       0.125       0.086
  HS02004862           JUNCTION      8.17    25.65     0  02:17      0.0363      0.0944       0.180
  HS02004856           JUNCTION      7.36    17.53     0  02:16      0.0231      0.0595       2.477
  HS02004852           JUNCTION      0.00    10.62     0  02:17           0      0.0365       0.142
  HS02004848           JUNCTION     16.48    16.48     0  02:20      0.0734      0.0734       0.060
  HS02004842           JUNCTION      0.00     6.44     0  02:29           0      0.0499      35.221
  HS02004837           JUNCTION     22.29    27.65     0  02:16       0.232       0.269       0.303
  HS02004830           JUNCTION      0.15    27.78     0  02:17     0.00423        0.26       0.477
  HS02004824           JUNCTION     18.62    46.16     0  02:20      0.0961       0.355       0.152
  HS02004817           JUNCTION      0.60    46.76     0  02:20      0.0169       0.371       4.704
  HS02004807           JUNCTION     18.64    63.78     0  02:18      0.0565       0.411       1.040
  HS02004802           JUNCTION      0.00    64.20     0  02:19           0       0.407       1.008
  HS02004799           JUNCTION     14.38   162.39     0  02:14      0.0457       0.544       0.420
  HS02004792           JUNCTION     64.06   148.26     0  02:14       0.198       0.499       0.082
  HS02004788           JUNCTION     21.19    86.25     0  02:15       0.111       0.302       0.128
  HS02004785           JUNCTION      0.15    65.39     0  02:14     0.00423       0.193       0.251
  HS02004777           JUNCTION      0.03    65.71     0  02:13    0.000846       0.194       2.749
  HS02004770           JUNCTION     54.27    66.84     0  02:11       0.159       0.194       1.618
  HS02004480           JUNCTION      0.00   191.59     0  02:15           0       0.637       0.117
  HS02004479           JUNCTION      0.00    29.75     0  02:16           0       0.105       0.699
  HS02004478           JUNCTION      0.00   254.08     0  02:16           0        1.03       0.060
  YS02001745           JUNCTION     97.44   175.15     0  04:09        1.01         1.1       1.055
  YS02001748           JUNCTION      0.04   228.33     0  04:04     0.00127         1.1       2.129
  YS02001751           JUNCTION      0.01   210.16     0  04:10     0.00031       0.993       2.358
  YS02001754           JUNCTION      0.26   146.68     0  02:58     0.00733       0.966       2.544
  YS02001762           JUNCTION      0.00   138.32     0  02:54           0         1.1       1.940
  YS02001765           JUNCTION      0.00   143.73     0  02:33           0        1.11       2.226
  YS02001767           JUNCTION      0.54   143.68     0  02:47      0.0151        1.13       3.269
  YS02001770           JUNCTION    124.32   158.83     0  02:51        1.18         1.2       2.718
  YS02001774           JUNCTION      0.00    50.40     0  02:13           0      0.0937      36.896
  YS02001779           JUNCTION      0.01    41.32     0  03:34    0.000141       0.041      55.108
  YS02001882           JUNCTION      0.00     4.73     0  02:05           0     0.00619      40.075
  YS02001884           JUNCTION      0.00    13.70     0  02:05           0      0.0247      25.944
  YS02001759           JUNCTION    121.25   259.94     0  02:49         1.1        2.16       1.058
  YS02001887           JUNCTION    158.68   158.68     0  02:42         1.3        1.31       0.566
  YS02001890           JUNCTION      0.00   158.08     0  02:42           0        1.28       0.633
  YS02001898           JUNCTION      0.00   157.32     0  02:42           0        1.27       0.187
  YS02001901           JUNCTION      0.00   156.88     0  02:43           0        1.27       0.453
  YS02001904           JUNCTION      0.00   156.51     0  02:41           0        1.27       0.421
  YS02001907           JUNCTION      0.00   286.50     0  02:52           0        2.73       0.826
  YS02001910           JUNCTION      0.00   131.94     0  03:01           0        1.47       0.712
  YS02001915           JUNCTION     86.94   131.44     0  03:01       0.865        1.48       0.326
  YS02001918           JUNCTION      0.00    44.56     0  03:03           0       0.615       0.205
  YS02001619           JUNCTION     84.64    93.19     0  03:55       0.854       0.857       1.422
  YS02001629           JUNCTION      0.00   185.72     0  03:59           0       0.799       3.743
  YS02001641           JUNCTION      0.00   184.36     0  02:58           0        1.68       1.263
  YS02001644           JUNCTION     92.63   278.41     0  02:56       0.974        2.89       0.905
  YS02001652           JUNCTION      0.00   184.81     0  02:56           0       0.885       2.577
  YS02001655           JUNCTION      0.15   268.65     0  03:47     0.00434       0.924       2.748
  YS02001920           JUNCTION      2.87    44.40     0  03:02      0.0809       0.617       0.356
  YS02001923           JUNCTION      0.04    41.53     0  03:01     0.00106       0.537       0.063
  YS02001926           JUNCTION      0.05    41.57     0  03:01     0.00147       0.538       0.445
  YS02001929           JUNCTION     41.54    41.54     0  03:01       0.537       0.537       0.062
  YS02001658           JUNCTION      0.00   255.10     0  03:41           0        1.03       2.270
  YS02001661           JUNCTION      0.00   193.37     0  03:45           0        1.09       2.027
  YS02001664           JUNCTION    112.77   112.77     0  02:44       0.954        1.01       0.521
  YS02001622           JUNCTION      0.00   139.65     0  03:56           0       0.869       3.795
  YS02001633           JUNCTION     94.19   189.59     0  02:58           1        1.73       1.858
  YS02001649           JUNCTION      0.00   402.81     0  02:53           0        3.43       1.081
  YS02001757           JUNCTION      0.00   715.06     0  02:58           0        6.24       1.495
  YS02001895           JUNCTION      0.00   157.77     0  02:42           0        1.28       0.309
  YS02001625           JUNCTION      0.00   187.80     0  03:57           0       0.859       4.698
  YS02163301           JUNCTION      0.00   109.40     0  02:36           0       0.759       3.218
  YS02163601           JUNCTION      0.11   186.78     0  02:58      0.0031         1.7       1.781
  YS02164001           JUNCTION      0.00   185.25     0  02:58           0        1.68       1.183
  YS02001647           JUNCTION      0.00   279.66     0  02:56           0        2.64       1.031
  YSB1154              JUNCTION     15.99    15.99     0  02:14      0.0554      0.0567       2.612
  YSB6556              JUNCTION      0.00    16.00     0  02:16           0      0.0577       2.210
  YSB1174              JUNCTION     15.69    15.69     0  02:09      0.0403      0.0413       3.205
  YSB1171              JUNCTION      0.00    29.74     0  02:15           0       0.105       6.436
  YS02006553           JUNCTION      0.00   286.28     0  02:52           0        2.72       0.535
  YS02006561           JUNCTION      0.00   440.31     0  02:52           0        3.85       0.011
  YS02006556           JUNCTION      0.00   286.13     0  02:52           0        2.73       0.387
  YS02006558           JUNCTION    134.62   420.50     0  02:52        1.18        3.88       0.127
  YS02001783           JUNCTION      0.00   433.07     0  02:50           0        3.85       0.043
  YS02001784           JUNCTION      1.06   486.23     0  02:50      0.0299        3.88       0.069
  YS02001786           JUNCTION      0.06   481.35     0  02:51     0.00159        3.88       0.069
  YS02001788           JUNCTION      0.07   482.86     0  02:52       0.002        3.88       0.040
  YS02001790           JUNCTION      0.15   475.27     0  02:51     0.00437        3.88       0.045
  YS02001791           JUNCTION      0.00   475.20     0  02:51           0        3.88       0.016
  YS02001793           JUNCTION      0.00   518.09     0  02:46           0        3.88       0.009
  WS02004139           JUNCTION      0.32   290.33     0  00:00     0.00905        6.65       0.491
  WSC                  OUTFALL       0.00   811.33     0  02:36           0        12.8       0.000
  3                    OUTFALL       0.00   597.65     0  00:00           0        2.38       0.000
  4                    OUTFALL       0.00     0.00     0  00:00           0           0       0.000 ltr
  5                    OUTFALL       0.00     0.00     0  00:00           0           0       0.000 ltr
  JK-storage           STORAGE       0.00   701.05     0  02:45           0        4.03     -20.717
  CC-storage           STORAGE       0.00   715.51     0  02:58           0        5.92       1.108
  XR-storage           STORAGE     357.32   357.32     0  02:56        7.35        7.95       0.000
  
  
  **********************
  Node Surcharge Summary
  **********************
  
  Surcharging occurs when water rises above the top of the highest conduit.
  ---------------------------------------------------------------------
                                               Max. Height   Min. Depth
                                   Hours       Above Crown    Below Rim
  Node                 Type      Surcharged         Meters       Meters
  ---------------------------------------------------------------------
  WS02006109           JUNCTION        0.99          0.140        1.680
  WS02006110           JUNCTION        0.12          0.005        1.845
  WS02006112           JUNCTION        0.27          0.044        1.636
  WS02006232           JUNCTION        0.30          0.075        1.405
  WS02006235           JUNCTION        0.15          0.017        1.273
  WS02006238           JUNCTION        0.20          0.032        1.398
  WS02006256           JUNCTION        0.01          1.050        0.000
  WS02006228           JUNCTION        0.94          0.166        2.034
  YS02001748           JUNCTION        2.01          0.203        0.987
  YS02001751           JUNCTION        3.38          0.727        0.473
  YS02001754           JUNCTION        4.32          0.735        0.415
  YS02001762           JUNCTION        5.32          0.968        0.182
  YS02001765           JUNCTION        5.28          0.916        0.184
  YS02001767           JUNCTION        5.22          0.881        0.149
  YS02001770           JUNCTION        5.15          0.849        0.071
  YS02001774           JUNCTION        5.31          0.952        0.098
  YS02001779           JUNCTION        4.18          0.680        0.000
  YS02001759           JUNCTION        5.35          0.999        0.211
  YS02001619           JUNCTION        2.98          0.468        0.142
  YS02001629           JUNCTION        2.99          0.459        0.011
  YS02001641           JUNCTION        5.30          0.930        0.170
  YS02001644           JUNCTION        5.30          0.920        0.000
  YS02001652           JUNCTION        4.53          0.737        0.393
  YS02001655           JUNCTION        3.57          0.694        0.506
  YS02001658           JUNCTION        2.07          0.225        1.075
  YS02001622           JUNCTION        3.22          0.489        0.131
  YS02001633           JUNCTION        5.26          0.910        0.150
  YS02001649           JUNCTION        5.32          0.970        0.080
  YS02001757           JUNCTION        5.43          1.100        0.110
  YS02001625           JUNCTION        4.93          0.780        0.000
  YS02163301           JUNCTION        5.20          0.872        0.158
  YS02163601           JUNCTION        5.33          0.977        0.103
  YS02164001           JUNCTION        5.27          0.913        0.187
  YS02001647           JUNCTION        4.78          0.748        0.152
  YS02001784           JUNCTION        0.01          0.022        1.468
  YS02001788           JUNCTION        0.01          0.287        1.193
  YS02001790           JUNCTION        1.07          1.157        0.000
  YS02001791           JUNCTION        1.20          1.920        0.000
  YS02001793           JUNCTION        1.40          1.697        0.903
  
  
  *********************
  Node Flooding Summary
  *********************
  
  Flooding refers to all water that overflows a node, whether it ponds or not.
  --------------------------------------------------------------------------
                                                             Total   Maximum
                                 Maximum   Time of Max       Flood    Ponded
                        Hours       Rate    Occurrence      Volume     Depth
  Node                 Flooded       LPS   days hr:min    10^6 ltr    Meters
  --------------------------------------------------------------------------
  WS02006256              0.01    406.11      0  00:00       0.001     0.000
  YS02001779              0.07      2.59      0  06:47       0.000     0.000
  YS02001644              1.14    219.02      0  07:00       0.476     0.000
  YS02001625              0.01      4.87      0  06:38       0.000     0.000
  YS02001790              0.01    182.26      0  02:48       0.000     0.000
  YS02001791              0.01    193.44      0  02:47       0.000     0.000
  JK-storage              0.78    421.34      0  02:51       0.303     0.000
  XR-storage              2.05     65.04      0  05:47       0.378     0.000
  
  
  **********************
  Storage Volume Summary
  **********************
  
  --------------------------------------------------------------------------------------------------
                         Average     Avg  Evap Exfil       Maximum     Max    Time of Max    Maximum
                          Volume    Pcnt  Pcnt  Pcnt        Volume    Pcnt     Occurrence    Outflow
  Storage Unit           1000 m3    Full  Loss  Loss       1000 m3    Full    days hr:min        LPS
  --------------------------------------------------------------------------------------------------
  JK-storage               0.109      37     0     0         0.291     100       0  02:49     600.00
  CC-storage               2.033      13     0     0         3.803      24       0  06:53     200.00
  XR-storage               0.705      76     0     0         0.926     100       0  05:47     285.00
  
  
  ***********************
  Outfall Loading Summary
  ***********************
  
  -----------------------------------------------------------
                         Flow       Avg       Max       Total
                         Freq      Flow      Flow      Volume
  Outfall Node           Pcnt       LPS       LPS    10^6 ltr
  -----------------------------------------------------------
  WSC                   99.99    528.79    811.33      12.772
  3                     88.05    143.23    597.65       2.380
  4                      0.00      0.00      0.00       0.000
  5                      0.00      0.00      0.00       0.000
  -----------------------------------------------------------
  System                47.01    672.03    944.58      15.153
  
  
  ********************
  Link Flow Summary
  ********************
  
  -----------------------------------------------------------------------------
                                 Maximum  Time of Max   Maximum    Max/    Max/
                                  |Flow|   Occurrence   |Veloc|    Full    Full
  Link                 Type          LPS  days hr:min     m/sec    Flow   Depth
  -----------------------------------------------------------------------------
  WS02003066WSF200     CONDUIT    527.51     0  02:36      2.70    0.09    0.23
  WS02006287WS02006284 CONDUIT    254.15     0  02:16      1.74    0.12    0.24
  WS02006284WS02006280 CONDUIT    254.26     0  02:17      1.98    0.11    0.22
  WS02006280WS02006229 CONDUIT    254.26     0  02:17      3.19    0.05    0.16
  WS02006229WS02006228 CONDUIT    524.63     0  02:28      1.04    1.74    1.00
  WS02006256WS02006235 CONDUIT    177.52     0  00:01      2.73    1.88    1.00
  WS02006253WS02006251 CONDUIT     50.26     0  02:15      0.53    0.15    0.68
  WS02006252WS02006251 CONDUIT    200.64     0  02:18      1.97    0.74    0.76
  WS02006251WS02006249 CONDUIT    245.68     0  02:22      0.99    0.71    0.69
  WS02006249WS02006248 CONDUIT    244.09     0  02:24      1.08    1.34    0.68
  WS02006248WS02006247 CONDUIT    242.66     0  02:23      1.04    0.53    0.72
  WS02006247WS02006245 CONDUIT    245.68     0  02:41      0.99    1.95    0.76
  WS02006245WS02006243 CONDUIT    250.21     0  02:41      1.03    0.74    0.78
  WS02006243WS02006242 CONDUIT    258.35     0  02:41      0.83    0.55    0.89
  WS02006242WS02006240 CONDUIT    264.93     0  02:41      0.78    1.05    0.96
  WS02006240WS02006239 CONDUIT    272.56     0  02:40      0.84    0.86    0.94
  WS02006239WS02006238 CONDUIT    278.65     0  02:40      0.76    0.89    1.00
  WS02006238WS02006235 CONDUIT    281.25     0  02:40      1.32    0.63    1.00
  WS02006235WS02006234 CONDUIT    319.66     0  03:11      0.94    3.37    0.99
  WS02006234WS02006232 CONDUIT    320.10     0  03:11      1.17    0.65    1.00
  WS02006232WS02006231 CONDUIT    320.44     0  03:11      0.94    0.67    0.96
  WS02006231WS02006230 CONDUIT    321.13     0  03:10      1.29    4.87    0.90
  WS02006230WS02006229 CONDUIT    332.59     0  03:13      0.86    7.40    1.00
  WS02006228WS02006109 CONDUIT    524.63     0  02:28      1.04    2.29    1.00
  WS02006116WS02004401 CONDUIT    530.48     0  02:32      0.76    0.73    0.83
  WS02006115WS02006116 CONDUIT    531.36     0  02:31      0.85    0.68    0.75
  WS02006113WS02006111 CONDUIT    546.04     0  02:29      2.44    0.65    0.46
  WS02006112WS02006115 CONDUIT    533.82     0  02:32      0.74    0.32    0.87
  WS02006111WS02006112 CONDUIT    529.18     0  02:29      1.48    0.25    0.67
  WS02006110WS02006113 CONDUIT    526.11     0  02:29      1.25    0.48    0.78
  WS02006109WS02006110 CONDUIT    525.87     0  02:29      1.05    1.01    1.00
  WS02004411WS02004412 CONDUIT    527.75     0  02:35      0.92    0.75    0.69
  WS02004401WS02004402 CONDUIT    530.20     0  02:32      0.74    0.64    0.86
  WS02004413WS02003067 CONDUIT    527.44     0  02:35      1.10    0.23    0.59
  WS02004412WS02004413 CONDUIT    527.49     0  02:35      0.81    0.35    0.77
  WS02004410WS02004411 CONDUIT    528.13     0  02:34      0.93    0.72    0.68
  WS02004409WS02004410 CONDUIT    528.93     0  02:34      0.96    0.68    0.67
  WS02004407WS02004409 CONDUIT    530.00     0  02:33      1.46    0.19    0.48
  WS02004406WS02004407 CONDUIT    530.04     0  02:33      1.03    0.24    0.62
  WS02004405WS02004406 CONDUIT    530.16     0  02:32      0.69    1.05    0.95
  WS02004404WS02004405 CONDUIT    530.06     0  02:32      0.69    5.19    0.95
  WS02004403WS02004404 CONDUIT    529.95     0  02:33      0.70    0.38    0.92
  WS02004402WS02004403 CONDUIT    529.99     0  02:32      0.73    0.76    0.88
  WS02004139WS02001211 CONDUIT    285.58     0  03:23      0.80    0.36    0.53
  WS02004138WS02004139 CONDUIT    290.01     0  00:00      3.34    0.06    0.38
  WS02003067WS02003066 CONDUIT    527.49     0  02:36      1.19    0.17    0.41
  WS02001213WS02003059 CONDUIT    294.06     0  03:23      0.80    0.49    0.71
  WS02001212WS02001213 CONDUIT    293.53     0  03:23      1.19    0.45    0.40
  WS02001211WS02001212 CONDUIT    293.24     0  03:24      0.67    0.22    0.57
  WS02003072WS02003073 CONDUIT    809.36     0  02:35      1.64    1.75    0.45
  WS02003069WS02003072 CONDUIT    809.22     0  02:35      1.55    0.39    0.47
  WS02003060WS02003069 CONDUIT    808.96     0  02:34      1.80    0.32    0.42
  WS02003059WS02003060 CONDUIT    294.78     0  03:22      0.82    0.19    0.61
  HS02004901HS02004770 CONDUIT     12.91     0  02:13      0.05    0.05    0.35
  HS02004876HS02004881 CONDUIT     43.89     0  02:16      0.66    0.47    0.09
  HS02004870HS02004876 CONDUIT     34.92     0  02:17      0.46    0.02    0.11
  HS02004842HS02004848 CONDUIT      6.44     0  02:29      0.03    0.00    0.28
  HS02004837HS02004842 CONDUIT      6.66     0  02:30      0.41    0.00    0.30
  HS02004830HS02004837 CONDUIT     27.63     0  02:17      0.47    0.03    0.08
  HS02004824HS02004830 CONDUIT     27.78     0  02:17      0.51    0.04    0.08
  HS02004817HS02004824 CONDUIT     46.16     0  02:20      0.17    0.02    0.42
  HS02004770HS02004777 CONDUIT     65.68     0  02:13      0.26    0.12    0.36
  HS02004799HS02004480 CONDUIT    162.16     0  02:15      0.66    0.20    0.35
  HS02004792HS02004799 CONDUIT    148.18     0  02:14      0.76    0.09    0.28
  HS02004788HS02004792 CONDUIT     86.18     0  02:15      0.90    0.06    0.14
  HS02004785HS02004788 CONDUIT     65.30     0  02:15      0.57    0.49    0.16
  HS02004777HS02004785 CONDUIT     65.24     0  02:14      0.32    0.08    0.30
  HS02004480HS02004478 CONDUIT    191.49     0  02:15      1.05    0.81    0.26
  HS02004479HS02004480 CONDUIT     30.03     0  02:17      0.16    0.03    0.34
  HS02004862HS02004870 CONDUIT     25.61     0  02:18      0.51    0.03    0.07
  HS02004848HS02004852 CONDUIT     10.62     0  02:17      0.34    0.01    0.04
  HS02004856HS02004862 CONDUIT     17.50     0  02:17      0.38    0.02    0.07
  HS02004852HS02004856 CONDUIT     10.59     0  02:18      0.15    0.01    0.10
  HS02004802HS02004478 CONDUIT     64.70     0  02:20      0.34    0.06    0.28
  HS02004478WS02006287 CONDUIT    254.10     0  02:16      1.44    0.07    0.20
  HS02004817HS02004807 CONDUIT     47.48     0  02:22      0.13    0.03    0.54
  HS02004807HS02004802 CONDUIT     64.20     0  02:19      0.28    0.12    0.33
  YS02001759YS02001757 CONDUIT    260.48     0  02:49      0.33    0.19    1.00
  YS02001762YS02001759 CONDUIT    138.70     0  02:49      0.18    0.16    1.00
  YS02001765YS02001762 CONDUIT    138.32     0  02:54      0.23    0.13    1.00
  YS02001770YS02001767 CONDUIT    143.15     0  02:47      0.32    0.57    1.00
  YS02001774YS02001770 CONDUIT     50.40     0  02:13      0.14    0.03    1.00
  YS02001779YS02001774 CONDUIT     41.31     0  03:34      0.08    0.02    1.00
  YS02001649YS02001757 CONDUIT    402.31     0  02:53      0.51    0.24    1.00
  YS02001767YS02001765 CONDUIT    143.73     0  02:33      0.26    0.18    1.00
  YS02006561YS02001783 CONDUIT    433.07     0  02:50      1.92    0.22    0.61
  YS02001783YS02001784 CONDUIT    485.17     0  02:50      1.36    0.67    0.92
  YS02001784YS02001785 CONDUIT    481.30     0  02:51      1.46    1.12    0.97
  YS02001788YS02001790 CONDUIT    475.11     0  02:51      2.01    0.35    1.00
  YS02001790YS02001791 CONDUIT    475.20     0  02:51      2.38    0.52    1.00
  YS02001791YS02001793 CONDUIT    518.09     0  02:46      4.77    0.22    1.00
  YS02001910YS02001907 CONDUIT    132.62     0  03:03      0.49    0.07    0.81
  YS02001786YS02001788 CONDUIT    482.79     0  02:52      1.94    0.93    0.98
  YS02001915YS02001910 CONDUIT    131.94     0  03:01      0.45    0.07    0.60
  YS02001918YS02001915 CONDUIT     46.05     0  03:07      0.44    0.03    0.32
  YS02001923YS02001920 CONDUIT     41.53     0  03:02      0.50    0.02    0.16
  YS02001926YS02001923 CONDUIT     41.49     0  03:01      0.55    0.06    0.15
  YS02001929YS02001926 CONDUIT     41.52     0  03:01      0.59    0.02    0.15
  YS02001920YS02001918 CONDUIT     44.56     0  03:03      0.51    0.04    0.19
  YS02001629YS02163301 CONDUIT    109.40     0  02:36      0.14    0.13    1.00
  YS02001619YS02001622 CONDUIT    139.65     0  03:56      0.70    0.21    1.00
  YS02001622YS02001625 CONDUIT    187.80     0  03:57      0.28    0.10    1.00
  YS02001625YS02001629 CONDUIT    185.72     0  03:59      0.27    0.09    1.00
  YS02163301YS02001633 CONDUIT     95.54     0  02:58      0.12    0.09    1.00
  YS02163601YS02164001 CONDUIT    185.25     0  02:58      0.24    0.16    1.00
  YS02164001YS02001641 CONDUIT    184.36     0  02:58      0.23    0.25    1.00
  YS02001641YS02001644 CONDUIT    186.06     0  02:56      0.24    0.60    1.00
  YS02001647YS02001649 CONDUIT    313.34     0  02:55      0.40    0.17    1.00
  YS02006553YS02006556 CONDUIT    286.13     0  02:52      0.39    0.24    0.89
  YS02006556YS02006558 CONDUIT    288.46     0  03:06      0.39    0.23    0.92
  YSB6556YSB1171       CONDUIT     16.29     0  02:18      0.07    0.02    0.61
  YS02001907YS02006553 CONDUIT    286.28     0  02:52      0.32    0.34    1.00
  YS02006558YS02006561 CONDUIT    440.31     0  02:52      2.62    0.97    0.58
  YS02001633YS02163601 CONDUIT    186.67     0  02:58      0.24    0.20    1.00
  YS02001644YS02001647 CONDUIT    279.66     0  02:56      0.36    0.16    1.00
  YS02001745YS02001748 CONDUIT    228.29     0  04:04      1.48    0.09    0.92
  YS02001748YS02001751 CONDUIT    206.00     0  04:10      1.15    0.10    1.00
  YS02001751YS02001754 CONDUIT    146.42     0  02:58      1.01    0.07    1.00
  YS02001754YS02001757 CONDUIT    138.79     0  04:00      0.33    0.06    1.00
  YS02001882YS02001884 CONDUIT      4.73     0  02:05      0.06    0.01    0.54
  YS02001884YS02001887 CONDUIT     13.70     0  02:05      0.06    0.02    0.63
  YS02001890YS02001895 CONDUIT    157.77     0  02:42      0.32    0.07    0.60
  YS02001895YS02001898 CONDUIT    157.32     0  02:42      0.50    0.27    0.46
  YS02001898YS02001901 CONDUIT    156.88     0  02:43      0.37    0.10    0.54
  YS02001901YS02001904 CONDUIT    156.51     0  02:41      0.33    0.24    0.59
  YS02001904YS02001907 CONDUIT    156.50     0  02:52      0.25    0.05    0.75
  YS02001887YS02001890 CONDUIT    158.08     0  02:42      0.28    0.27    0.69
  YS02001652YS02001649 CONDUIT    157.37     0  02:52      0.34    0.08    1.00
  YS02001655YS02001652 CONDUIT    184.81     0  02:56      1.08    0.09    1.00
  YS02001658YS02001655 CONDUIT    268.50     0  03:47      1.33    0.11    1.00
  YS02001661YS02001658 CONDUIT    255.10     0  03:41      1.55    0.10    0.95
  YS02001664YS02001661 CONDUIT    112.77     0  02:44      1.26    0.04    0.69
  YSB1154YSB6556       CONDUIT     16.00     0  02:16      0.19    0.03    0.50
  YSB1174YSB1171       CONDUIT     14.69     0  02:10      0.06    0.02    0.62
  YSB1171HS02004479    CONDUIT     29.75     0  02:16      0.54    0.02    0.48
  HS02004881HS02006253 CONDUIT     49.05     0  02:16      1.82    0.01    0.13
  YS02001793JiankangQianchi CONDUIT    701.05     0  02:45     13.02    0.06    1.00
  YS02001757CaochengTiaoxuchi CONDUIT    715.51     0  02:58      1.50    0.31    1.00
  WSF200WS02003060     CONDUIT    527.39     0  02:36      1.70    0.12    0.32
  1                    CONDUIT    811.33     0  02:36      3.14    0.28    0.36
  2                    CONDUIT      0.00     0  00:00      0.00    0.00    0.00
  3                    CONDUIT    597.65     0  00:00     10.05    0.95    0.86
  4                    CONDUIT      0.00     0  00:00      0.00    0.00    0.00
  CC-Pump-1            PUMP       200.00     0  02:18              1.00
  CC-Pump-2            PUMP         0.00     0  00:00              0.00
  JK-Pump-1            PUMP       300.00     0  00:00              1.00
  JK-Pump-2            PUMP       300.00     0  00:00              1.00
  XR-Pump-1            PUMP        95.00     0  02:20              1.00
  XR-Pump-2            PUMP        95.00     0  00:00              1.00
  XR-Pump-3            PUMP        95.00     0  00:00              1.00
  XR-Pump-4            PUMP        95.00     0  00:00              1.00
  
  
  ***************************
  Flow Classification Summary
  ***************************
  
  -------------------------------------------------------------------------------------
                      Adjusted    ---------- Fraction of Time in Flow Class ---------- 
                       /Actual         Up    Down  Sub   Sup   Up    Down  Norm  Inlet 
  Conduit               Length    Dry  Dry   Dry   Crit  Crit  Crit  Crit  Ltd   Ctrl  
  -------------------------------------------------------------------------------------
  WS02003066WSF200        1.00   0.08  0.00  0.00  0.00  0.92  0.00  0.00  0.66  0.00
  WS02006287WS02006284    1.00   0.04  0.02  0.00  0.63  0.31  0.00  0.00  0.77  0.00
  WS02006284WS02006280    1.00   0.05  0.00  0.00  0.00  0.00  0.00  0.95  0.00  0.00
  WS02006280WS02006229    1.00   0.05  0.00  0.00  0.00  0.00  0.00  0.95  0.00  0.00
  WS02006229WS02006228    1.00   0.00  0.00  0.00  0.98  0.00  0.00  0.02  0.00  0.00
  WS02006256WS02006235    1.00   0.00  0.00  0.00  0.99  0.01  0.00  0.00  0.00  0.00
  WS02006253WS02006251    1.00   0.03  0.01  0.00  0.95  0.00  0.00  0.00  0.00  0.00
  WS02006252WS02006251    1.00   0.09  0.09  0.00  0.00  0.00  0.82  0.00  0.00  0.00
  WS02006251WS02006249    1.00   0.00  0.00  0.00  1.00  0.00  0.00  0.00  0.59  0.00
  WS02006249WS02006248    1.00   0.00  0.02  0.00  0.60  0.00  0.38  0.00  0.00  0.00
  WS02006248WS02006247    1.00   0.02  0.00  0.00  0.97  0.00  0.00  0.01  0.50  0.00
  WS02006247WS02006245    1.00   0.02  0.00  0.00  0.96  0.00  0.00  0.02  0.00  0.00
  WS02006245WS02006243    1.00   0.02  0.00  0.00  0.92  0.00  0.00  0.06  0.01  0.00
  WS02006243WS02006242    1.00   0.01  0.01  0.00  0.98  0.00  0.00  0.00  0.27  0.00
  WS02006242WS02006240    1.00   0.01  0.00  0.00  0.99  0.00  0.00  0.00  0.00  0.00
  WS02006240WS02006239    1.00   0.00  0.00  0.00  0.94  0.00  0.00  0.05  0.02  0.00
  WS02006239WS02006238    1.00   0.00  0.00  0.00  1.00  0.00  0.00  0.00  0.00  0.00
  WS02006238WS02006235    1.00   0.00  0.00  0.00  1.00  0.00  0.00  0.00  0.00  0.00
  WS02006235WS02006234    1.00   0.00  0.00  0.00  0.94  0.00  0.06  0.00  0.00  0.00
  WS02006234WS02006232    1.00   0.00  0.00  0.00  1.00  0.00  0.00  0.00  0.00  0.00
  WS02006232WS02006231    1.00   0.00  0.00  0.00  0.99  0.00  0.01  0.00  0.00  0.00
  WS02006231WS02006230    1.00   0.01  0.00  0.00  0.48  0.00  0.51  0.00  0.00  0.00
  WS02006230WS02006229    1.00   0.00  0.00  0.00  0.98  0.00  0.00  0.02  0.01  0.00
  WS02006228WS02006109    1.00   0.00  0.00  0.00  0.99  0.00  0.00  0.00  0.00  0.00
  WS02006116WS02004401    1.00   0.03  0.00  0.00  0.97  0.00  0.00  0.00  0.00  0.00
  WS02006115WS02006116    1.00   0.03  0.00  0.00  0.96  0.00  0.00  0.01  0.01  0.00
  WS02006113WS02006111    1.00   0.02  0.00  0.00  0.00  0.98  0.00  0.00  0.15  0.00
  WS02006112WS02006115    1.00   0.02  0.00  0.00  0.97  0.00  0.00  0.00  0.00  0.00
  WS02006111WS02006112    1.00   0.02  0.00  0.00  0.98  0.00  0.00  0.00  0.98  0.00
  WS02006110WS02006113    1.00   0.02  0.00  0.00  0.98  0.00  0.00  0.00  0.00  0.00
  WS02006109WS02006110    1.00   0.00  0.02  0.00  0.98  0.00  0.00  0.00  0.00  0.00
  WS02004411WS02004412    1.00   0.06  0.00  0.00  0.94  0.00  0.00  0.00  0.00  0.00
  WS02004401WS02004402    1.00   0.03  0.00  0.00  0.97  0.00  0.00  0.00  0.00  0.00
  WS02004413WS02003067    1.00   0.06  0.02  0.00  0.00  0.00  0.92  0.00  0.00  0.00
  WS02004412WS02004413    1.00   0.06  0.00  0.00  0.94  0.00  0.00  0.00  0.03  0.00
  WS02004410WS02004411    1.00   0.06  0.00  0.00  0.94  0.00  0.00  0.00  0.01  0.00
  WS02004409WS02004410    1.00   0.06  0.00  0.00  0.94  0.00  0.00  0.00  0.00  0.00
  WS02004407WS02004409    1.00   0.06  0.00  0.00  0.94  0.00  0.00  0.00  0.80  0.00
  WS02004406WS02004407    1.00   0.00  0.06  0.00  0.94  0.00  0.00  0.00  0.00  0.00
  WS02004405WS02004406    1.00   0.00  0.00  0.00  1.00  0.00  0.00  0.00  0.02  0.00
  WS02004404WS02004405    1.00   0.00  0.00  0.00  1.00  0.00  0.00  0.00  0.00  0.00
  WS02004403WS02004404    1.00   0.00  0.03  0.00  0.97  0.00  0.00  0.00  0.02  0.00
  WS02004402WS02004403    1.00   0.03  0.00  0.00  0.97  0.00  0.00  0.00  0.00  0.00
  WS02004139WS02001211    1.00   0.00  0.00  0.00  0.99  0.00  0.01  0.00  0.00  0.00
  WS02004138WS02004139    1.00   0.00  0.00  0.00  0.98  0.01  0.00  0.00  1.00  0.00
  WS02003067WS02003066    1.00   0.08  0.01  0.00  0.92  0.00  0.00  0.00  0.00  0.00
  WS02001213WS02003059    1.00   0.00  0.00  0.00  0.99  0.00  0.00  0.00  0.00  0.00
  WS02001212WS02001213    1.00   0.01  0.00  0.00  0.60  0.00  0.40  0.00  0.00  0.00
  WS02001211WS02001212    1.00   0.00  0.01  0.00  0.99  0.00  0.00  0.00  0.00  0.00
  WS02003072WS02003073    1.00   0.00  0.00  0.00  0.00  0.00  0.00  1.00  0.00  0.00
  WS02003069WS02003072    1.00   0.00  0.00  0.00  0.99  0.01  0.00  0.00  0.55  0.00
  WS02003060WS02003069    1.00   0.00  0.00  0.00  0.97  0.03  0.00  0.00  0.04  0.00
  WS02003059WS02003060    1.00   0.00  0.00  0.00  0.99  0.01  0.00  0.00  0.01  0.00
  HS02004901HS02004770    1.00   0.05  0.00  0.00  0.95  0.00  0.00  0.00  0.02  0.00
  HS02004876HS02004881    1.00   0.02  0.00  0.00  0.98  0.00  0.00  0.00  0.00  0.00
  HS02004870HS02004876    1.00   0.01  0.00  0.00  0.99  0.00  0.00  0.00  0.95  0.00
  HS02004842HS02004848    1.00   0.00  0.05  0.00  0.95  0.00  0.00  0.00  0.67  0.00
  HS02004837HS02004842    1.00   0.00  0.00  0.00  0.99  0.01  0.00  0.00  0.11  0.00
  HS02004830HS02004837    1.00   0.00  0.00  0.00  1.00  0.00  0.00  0.00  0.99  0.00
  HS02004824HS02004830    1.00   0.00  0.00  0.00  1.00  0.00  0.00  0.00  0.00  0.00
  HS02004817HS02004824    1.00   0.00  0.00  0.00  1.00  0.00  0.00  0.00  1.00  0.00
  HS02004770HS02004777    1.00   0.00  0.05  0.00  0.95  0.00  0.00  0.00  0.07  0.00
  HS02004799HS02004480    1.00   0.01  0.02  0.00  0.94  0.00  0.04  0.00  0.00  0.00
  HS02004792HS02004799    1.00   0.00  0.00  0.00  0.98  0.02  0.00  0.00  0.98  0.00
  HS02004788HS02004792    1.00   0.00  0.00  0.00  0.98  0.02  0.00  0.00  0.98  0.00
  HS02004785HS02004788    1.00   0.00  0.00  0.00  1.00  0.00  0.00  0.00  0.00  0.00
  HS02004777HS02004785    1.00   0.00  0.00  0.00  1.00  0.00  0.00  0.00  0.20  0.00
  HS02004480HS02004478    1.00   0.05  0.00  0.00  0.68  0.00  0.00  0.27  0.00  0.00
  HS02004479HS02004480    1.00   0.03  0.00  0.00  0.97  0.00  0.00  0.00  0.16  0.00
  HS02004862HS02004870    1.00   0.00  0.00  0.00  1.00  0.00  0.00  0.00  0.06  0.00
  HS02004848HS02004852    1.00   0.05  0.00  0.00  0.95  0.00  0.00  0.00  0.71  0.00
  HS02004856HS02004862    1.00   0.00  0.07  0.00  0.93  0.00  0.00  0.00  0.75  0.00
  HS02004852HS02004856    1.00   0.05  0.01  0.00  0.95  0.00  0.00  0.00  0.83  0.00
  HS02004802HS02004478    1.00   0.05  0.01  0.00  0.95  0.00  0.00  0.00  0.01  0.00
  HS02004478WS02006287    1.00   0.06  0.00  0.00  0.82  0.12  0.00  0.00  0.75  0.00
  HS02004817HS02004807    1.00   0.00  0.05  0.00  0.95  0.00  0.00  0.00  0.00  0.00
  HS02004807HS02004802    1.00   0.05  0.00  0.00  0.95  0.00  0.00  0.00  0.01  0.00
  YS02001759YS02001757    1.00   0.00  0.00  0.00  1.00  0.00  0.00  0.00  0.17  0.00
  YS02001762YS02001759    1.00   0.00  0.00  0.00  1.00  0.00  0.00  0.00  0.04  0.00
  YS02001765YS02001762    1.00   0.00  0.00  0.00  1.00  0.00  0.00  0.00  0.22  0.00
  YS02001770YS02001767    1.00   0.00  0.00  0.00  1.00  0.00  0.00  0.00  0.00  0.00
  YS02001774YS02001770    1.00   0.00  0.05  0.00  0.94  0.00  0.00  0.00  0.06  0.00
  YS02001779YS02001774    1.00   0.00  0.00  0.00  1.00  0.00  0.00  0.00  0.26  0.00
  YS02001649YS02001757    1.00   0.00  0.00  0.00  1.00  0.00  0.00  0.00  0.19  0.00
  YS02001767YS02001765    1.00   0.00  0.00  0.00  1.00  0.00  0.00  0.00  0.01  0.00
  YS02006561YS02001783    1.00   0.08  0.00  0.00  0.21  0.72  0.00  0.00  0.69  0.00
  YS02001783YS02001784    1.00   0.00  0.08  0.00  0.92  0.00  0.00  0.00  0.00  0.00
  YS02001784YS02001785    1.00   0.00  0.00  0.00  1.00  0.00  0.00  0.00  0.25  0.00
  YS02001788YS02001790    1.00   0.00  0.00  0.00  0.34  0.66  0.00  0.00  0.73  0.00
  YS02001790YS02001791    1.00   0.00  0.00  0.00  0.30  0.70  0.00  0.00  0.43  0.00
  YS02001791YS02001793    1.00   0.00  0.00  0.00  0.32  0.68  0.00  0.00  0.02  0.00
  YS02001910YS02001907    1.00   0.00  0.00  0.00  0.98  0.00  0.00  0.02  0.13  0.00
  YS02001786YS02001788    1.00   0.00  0.00  0.00  0.32  0.68  0.00  0.00  0.00  0.00
  YS02001915YS02001910    1.00   0.00  0.00  0.00  1.00  0.00  0.00  0.00  0.24  0.00
  YS02001918YS02001915    1.00   0.00  0.01  0.00  0.98  0.01  0.00  0.00  0.71  0.00
  YS02001923YS02001920    1.00   0.00  0.00  0.00  1.00  0.00  0.00  0.00  1.00  0.00
  YS02001926YS02001923    1.00   0.00  0.03  0.00  0.00  0.00  0.97  0.00  0.00  0.00
  YS02001929YS02001926    1.00   0.00  0.05  0.00  0.95  0.00  0.00  0.00  0.87  0.00
  YS02001920YS02001918    1.00   0.00  0.01  0.00  0.99  0.00  0.00  0.00  0.00  0.00
  YS02001629YS02163301    1.00   0.07  0.00  0.00  0.93  0.00  0.00  0.00  0.00  0.00
  YS02001619YS02001622    1.00   0.05  0.00  0.00  0.95  0.00  0.00  0.00  0.00  0.00
  YS02001622YS02001625    1.00   0.05  0.00  0.00  0.95  0.00  0.00  0.00  0.12  0.00
  YS02001625YS02001629    1.00   0.05  0.03  0.00  0.90  0.00  0.02  0.00  0.00  0.00
  YS02163301YS02001633    1.00   0.00  0.07  0.00  0.93  0.00  0.00  0.00  0.00  0.00
  YS02163601YS02164001    1.00   0.00  0.04  0.00  0.96  0.00  0.00  0.00  0.00  0.00
  YS02164001YS02001641    1.00   0.01  0.02  0.00  0.96  0.00  0.00  0.00  0.07  0.00
  YS02001641YS02001644    1.00   0.00  0.01  0.00  0.99  0.00  0.00  0.00  0.00  0.00
  YS02001647YS02001649    1.00   0.00  0.07  0.00  0.93  0.00  0.00  0.00  0.01  0.00
  YS02006553YS02006556    1.00   0.02  0.00  0.00  0.98  0.00  0.00  0.00  0.03  0.00
  YS02006556YS02006558    1.00   0.00  0.01  0.00  0.99  0.00  0.00  0.00  0.00  0.00
  YSB6556YSB1171          1.00   0.03  0.02  0.00  0.95  0.00  0.00  0.00  0.00  0.00
  YS02001907YS02006553    1.00   0.01  0.02  0.00  0.98  0.00  0.00  0.00  0.00  0.00
  YS02006558YS02006561    1.00   0.08  0.00  0.00  0.00  0.92  0.00  0.00  0.64  0.00
  YS02001633YS02163601    1.00   0.00  0.01  0.00  0.99  0.00  0.00  0.00  0.19  0.00
  YS02001644YS02001647    1.00   0.00  0.07  0.00  0.93  0.00  0.00  0.00  0.00  0.00
  YS02001745YS02001748    1.00   0.00  0.00  0.00  0.86  0.01  0.00  0.13  0.13  0.00
  YS02001748YS02001751    1.00   0.00  0.00  0.00  0.97  0.03  0.00  0.00  0.23  0.00
  YS02001751YS02001754    1.00   0.00  0.00  0.00  0.92  0.00  0.00  0.08  0.01  0.00
  YS02001754YS02001757    1.00   0.00  0.00  0.00  0.99  0.01  0.00  0.00  0.26  0.00
  YS02001882YS02001884    1.00   0.06  0.00  0.00  0.93  0.00  0.00  0.00  0.00  0.00
  YS02001884YS02001887    1.00   0.03  0.01  0.00  0.96  0.00  0.00  0.00  0.00  0.00
  YS02001890YS02001895    1.00   0.00  0.06  0.00  0.93  0.00  0.00  0.00  0.00  0.00
  YS02001895YS02001898    1.00   0.07  0.00  0.00  0.92  0.00  0.01  0.00  0.00  0.00
  YS02001898YS02001901    1.00   0.07  0.00  0.00  0.93  0.00  0.00  0.00  0.02  0.00
  YS02001901YS02001904    1.00   0.07  0.00  0.00  0.93  0.00  0.00  0.00  0.00  0.00
  YS02001904YS02001907    1.00   0.01  0.06  0.00  0.93  0.00  0.00  0.00  0.00  0.00
  YS02001887YS02001890    1.00   0.00  0.00  0.00  0.98  0.00  0.02  0.00  0.00  0.00
  YS02001652YS02001649    1.00   0.00  0.00  0.00  1.00  0.00  0.00  0.00  0.25  0.00
  YS02001655YS02001652    1.00   0.00  0.00  0.00  0.92  0.00  0.00  0.08  0.02  0.00
  YS02001658YS02001655    1.00   0.00  0.06  0.00  0.91  0.04  0.00  0.00  0.09  0.00
  YS02001661YS02001658    1.00   0.06  0.00  0.00  0.85  0.09  0.00  0.00  0.14  0.00
  YS02001664YS02001661    1.00   0.05  0.00  0.00  0.72  0.23  0.00  0.00  0.53  0.00
  YSB1154YSB6556          1.00   0.05  0.00  0.00  0.95  0.00  0.00  0.00  0.02  0.00
  YSB1174YSB1171          1.00   0.03  0.01  0.00  0.96  0.00  0.00  0.00  0.00  0.00
  YSB1171HS02004479       1.00   0.03  0.00  0.00  0.97  0.00  0.00  0.00  0.13  0.00
  HS02004881HS02006253    1.00   0.03  0.00  0.00  0.55  0.01  0.00  0.42  0.35  0.00
  YS02001793JiankangQianchi    1.00   0.00  0.00  0.00  0.48  0.51  0.00  0.00  0.11  0.00
  YS02001757CaochengTiaoxuchi    1.00   0.00  0.09  0.00  0.91  0.00  0.00  0.00  0.00  0.00
  WSF200WS02003060        1.00   0.00  0.08  0.00  0.83  0.08  0.00  0.00  0.33  0.00
  1                       1.00   0.00  0.00  0.00  0.00  1.00  0.00  0.00  0.21  0.00
  2                       1.00   1.00  0.00  0.00  0.00  0.00  0.00  0.00  0.00  0.00
  3                       1.00   0.12  0.00  0.00  0.00  0.88  0.00  0.00  0.00  0.00
  4                       1.00   1.00  0.00  0.00  0.00  0.00  0.00  0.00  0.00  0.00
  
  
  *************************
  Conduit Surcharge Summary
  *************************
  
  ----------------------------------------------------------------------------
                                                           Hours        Hours 
                         --------- Hours Full --------   Above Full   Capacity
  Conduit                Both Ends  Upstream  Dnstream   Normal Flow   Limited
  ----------------------------------------------------------------------------
  WS02006229WS02006228        0.94      1.04      0.94      2.92         0.94
  WS02006256WS02006235        5.68      5.68      7.83      5.25         0.01
  WS02006249WS02006248        0.01      0.01      0.01      2.73         0.01
  WS02006247WS02006245        0.01      0.01      0.01      2.80         0.01
  WS02006242WS02006240        0.01      0.01      0.04      0.08         0.01
  WS02006239WS02006238        0.13      0.13      0.20      0.01         0.01
  WS02006238WS02006235        0.19      0.19      0.23      0.01         0.01
  WS02006235WS02006234        0.01      0.01      0.15      5.70         0.01
  WS02006234WS02006232        0.07      0.07      0.30      0.01         0.01
  WS02006232WS02006231        0.01      0.01      0.30      0.01         0.01
  WS02006231WS02006230        0.01      0.01      0.01      5.67         0.01
  WS02006230WS02006229        1.51      2.85      1.51      5.73         1.51
  WS02006228WS02006109        0.99      1.21      0.99      3.04         0.99
  WS02006112WS02006115        0.01      0.01      0.27      0.01         0.01
  WS02006111WS02006112        0.01      0.01      2.93      0.01         0.01
  WS02006110WS02006113        0.01      0.01      1.11      0.01         0.01
  WS02006109WS02006110        0.12      0.12      1.21      0.12         0.01
  WS02004405WS02004406        0.01      0.01      0.01      0.23         0.01
  WS02004404WS02004405        0.01      0.01      0.01      5.65         0.01
  WS02003072WS02003073        0.01      0.01      0.01      3.02         0.01
  YS02001759YS02001757        5.35      5.35      5.43      0.01         0.01
  YS02001762YS02001759        5.32      5.32      5.35      0.01         0.01
  YS02001765YS02001762        5.28      5.28      5.32      0.01         0.01
  YS02001770YS02001767        5.22      5.22      5.22      0.01         0.63
  YS02001774YS02001770        5.15      5.15      5.31      0.01         0.01
  YS02001779YS02001774        4.18      4.18      5.31      0.01         0.01
  YS02001649YS02001757        5.32      5.32      5.43      0.01         0.01
  YS02001767YS02001765        5.22      5.22      5.28      0.01         0.01
  YS02001783YS02001784        0.01      0.01      0.01      0.01         0.01
  YS02001784YS02001785        0.01      0.01      0.01      0.03         0.01
  YS02001788YS02001790        0.01      0.01      1.07      0.01         0.01
  YS02001790YS02001791        1.07      1.07      1.20      0.01         0.01
  YS02001791YS02001793        1.20      1.20      1.47      0.01         0.01
  YS02001786YS02001788        0.01      0.01      0.01      0.01         0.01
  YS02001629YS02163301        5.13      5.13      5.20      0.01         0.01
  YS02001619YS02001622        2.98      2.98      3.22      0.01         0.01
  YS02001622YS02001625        3.22      3.22      4.93      0.01         0.01
  YS02001625YS02001629        2.99      2.99      4.93      0.01         0.01
  YS02163301YS02001633        5.20      5.20      5.28      0.01         0.01
  YS02163601YS02164001        5.27      5.27      5.33      0.01         0.01
  YS02164001YS02001641        5.27      5.27      5.30      0.01         0.01
  YS02001641YS02001644        5.30      5.30      5.30      0.01         0.64
  YS02001647YS02001649        4.78      4.78      5.32      0.01         0.01
  YS02001907YS02006553        0.01      0.01      0.63      0.01         0.01
  YS02001633YS02163601        5.26      5.26      5.33      0.01         0.01
  YS02001644YS02001647        4.78      4.78      5.30      0.01         0.01
  YS02001745YS02001748        0.01      0.01      2.01      0.01         0.01
  YS02001748YS02001751        2.32      2.32      3.38      0.01         0.01
  YS02001751YS02001754        3.38      3.38      4.32      0.01         0.01
  YS02001754YS02001757        4.70      4.70      5.43      0.01         0.01
  YS02001652YS02001649        4.89      4.89      5.32      0.01         0.01
  YS02001655YS02001652        3.57      3.57      4.52      0.01         0.01
  YS02001658YS02001655        2.06      2.06      3.57      0.01         0.01
  YS02001661YS02001658        0.01      0.01      2.07      0.01         0.01
  YS02001793JiankangQianchi        1.40      1.40      2.27      0.01         0.01
  YS02001757CaochengTiaoxuchi        2.56      2.56      5.43      0.01         0.01
  3                           0.01      0.01      0.01      0.01         0.01
  
  
  ***************
  Pumping Summary
  ***************
  
  ---------------------------------------------------------------------------------------------------------
                                                  Min       Avg       Max     Total     Power    % Time Off
                        Percent   Number of      Flow      Flow      Flow    Volume     Usage    Pump Curve
  Pump                 Utilized   Start-Ups       LPS       LPS       LPS  10^6 ltr     Kw-hr    Low   High
  ---------------------------------------------------------------------------------------------------------
  CC-Pump-1               37.37           1      0.00    192.08    200.00     2.020      5.57    0.0   24.3
  CC-Pump-2                0.00           0      0.00      0.00      0.00     0.000      0.00    0.0    0.0
  JK-Pump-1               65.96           2      0.00     95.35    300.00     1.115     21.50    0.0    0.0
  JK-Pump-2               97.87           2      0.00    191.91    300.00     3.664     44.14    0.0    0.0
  XR-Pump-1               36.16           2      0.00     84.37     95.00     0.855      8.80    0.0    0.0
  XR-Pump-2               31.91           2      0.00     75.18     95.00     0.770     13.88    0.0    0.0
  XR-Pump-3               95.74           3      0.00     90.04     95.00     2.451     25.77    0.0    0.0
  XR-Pump-4               97.87           2      0.00     93.44     95.00     2.565     27.42    0.0    0.0
  

  Analysis begun on:  Tue Dec 21 16:41:55 2021
  Analysis ended on:  Tue Dec 21 16:41:58 2021
  Total elapsed time: 00:00:03