
  EPA STORM WATER MANAGEMENT MODEL - VERSION 5.1 (Build 5.3.0.dev0)
  --------------------------------------------------------------

  WARNING 04: minimum elevation drop used for Conduit WS02004404WS02004405
  WARNING 03: negative offset ignored for Link YS02001904YS02001907
  
  *********************************************************
  NOTE: The summary statistics displayed in this report are
  based on results found at every computational time step,  
  not just on results from each reporting time step.
  *********************************************************
  
  ****************
  Analysis Options
  ****************
  Flow Units ............... LPS
  Process Models:
    Rainfall/Runoff ........ YES
    RDII ................... NO
    Snowmelt ............... NO
    Groundwater ............ NO
    Flow Routing ........... YES
    Ponding Allowed ........ NO
    Water Quality .......... NO
  Infiltration Method ...... HORTON
  Flow Routing Method ...... DYNWAVE
  Surcharge Method ......... EXTRAN
  Starting Date ............ 08/28/2015 08:00:00
  Ending Date .............. 08/28/2015 15:50:00
  Antecedent Dry Days ...... 8.0
  Report Time Step ......... 00:01:00
  Wet Time Step ............ 00:01:00
  Dry Time Step ............ 00:01:00
  Routing Time Step ........ 5.00 sec
  Variable Time Step ....... YES
  Maximum Trials ........... 8
  Number of Threads ........ 4
  Head Tolerance ........... 0.001500 m
  
  
  **************************        Volume         Depth
  Runoff Quantity Continuity     hectare-m            mm
  **************************     ---------       -------
  Total Precipitation ......         3.299         7.222
  Evaporation Loss .........         0.000         0.000
  Infiltration Loss ........         0.835         1.829
  Surface Runoff ...........         1.533         3.357
  Final Storage ............         0.931         2.037
  Continuity Error (%) .....        -0.018
  
  
  **************************        Volume        Volume
  Flow Routing Continuity        hectare-m      10^6 ltr
  **************************     ---------     ---------
  Dry Weather Inflow .......         0.616         6.165
  Wet Weather Inflow .......         1.532        15.323
  Groundwater Inflow .......         0.000         0.000
  RDII Inflow ..............         0.000         0.000
  External Inflow ..........         0.102         1.024
  External Outflow .........         1.588        15.881
  Flooding Loss ............         0.203         2.028
  Evaporation Loss .........         0.000         0.000
  Exfiltration Loss ........         0.000         0.000
  Initial Stored Volume ....         0.076         0.761
  Final Stored Volume ......         0.634         6.336
  Continuity Error (%) .....        -4.182
  
  
  *************************
  Highest Continuity Errors
  *************************
  Node YS02001774 (27.14%)
  Node HS02004842 (24.59%)
  Node JK-storage (-21.41%)
  Node YS02001884 (19.05%)
  Node YSB1171 (5.53%)
  
  
  ***************************
  Time-Step Critical Elements
  ***************************
  Link WS02006252WS02006251 (47.41%)
  Link 3 (45.79%)
  Link WS02006280WS02006229 (2.00%)
  
  
  ********************************
  Highest Flow Instability Indexes
  ********************************
  Link WS02006113WS02006111 (48)
  Link YS02001779YS02001774 (24)
  Link YS02001774YS02001770 (22)
  Link WS02006111WS02006112 (21)
  Link YS02001793JiankangQianchi (18)
  
  
  *************************
  Routing Time Step Summary
  *************************
  Minimum Time Step           :     0.50 sec
  Average Time Step           :     1.02 sec
  Maximum Time Step           :     5.00 sec
  Percent in Steady State     :    -0.00
  Average Iterations per Step :     4.35
  Percent Not Converging      :    25.95
  
  
  ***************************
  Subcatchment Runoff Summary
  ***************************
  
  ------------------------------------------------------------------------------------------------------------------------------
                            Total      Total      Total      Total     Imperv       Perv      Total       Total     Peak  Runoff
                           Precip      Runon       Evap      Infil     Runoff     Runoff     Runoff      Runoff   Runoff   Coeff
  Subcatchment                 mm         mm         mm         mm         mm         mm         mm    10^6 ltr      LPS
  ------------------------------------------------------------------------------------------------------------------------------
  sub0                       7.22       0.00       0.00       0.51       5.45       0.00       5.45        0.00     1.87   0.755
  sub1                       7.22       0.00       0.00       0.79       5.17       0.00       5.17        0.03    10.07   0.716
  sub2                       7.22       0.00       0.00       2.67       3.64       0.00       3.64        0.03     8.96   0.504
  sub3                       7.22       0.00       0.00       2.67       3.61       0.00       3.61        0.08    18.60   0.499
  sub4                       7.22       0.00       0.00       0.79       5.03       0.00       5.03        0.10    21.02   0.696
  sub5                       7.22       0.00       0.00       0.51       5.40       0.00       5.40        0.06    17.91   0.748
  sub7                       7.22       0.00       0.00       0.65       5.32       0.00       5.32        0.02     6.25   0.736
  sub8                       7.22       0.00       0.00       0.65       5.31       0.00       5.31        0.03    11.07   0.735
  sub9                       7.22       0.00       0.00       0.65       5.31       0.00       5.31        0.03     8.21   0.735
  sub10                      7.22       0.00       0.00       0.58       5.35       0.00       5.35        0.06    17.84   0.741
  sub11                      7.22       0.00       0.00       0.58       5.37       0.00       5.37        0.06    20.80   0.743
  sub12                      7.22       0.00       0.00       0.94       5.09       0.00       5.09        0.04    17.39   0.705
  sub14                      7.22       0.00       0.00       0.65       5.30       0.00       5.30        0.05    16.06   0.734
  sub15                      7.22       0.00       0.00       2.17       4.08       0.00       4.08        0.07    21.83   0.565
  sub16                      7.22       0.00       0.00       2.38       3.92       0.00       3.92        0.04    15.34   0.543
  sub17                      7.22       0.00       0.00       2.31       3.98       0.00       3.98        0.03    12.43   0.551
  sub22                      7.22       0.00       0.00       3.11       3.33       0.00       3.33        0.21    71.06   0.461
  sub23                      7.22       0.00       0.00       2.67       3.68       0.00       3.68        0.18    60.47   0.510
  sub60                      7.22       0.00       0.00       0.87       3.78       0.00       3.78        1.14   112.07   0.523
  sub61                      7.22       0.00       0.00       1.23       3.98       0.00       3.98        1.23   138.95   0.551
  sub62                      7.22       0.00       0.00       0.58       4.28       0.00       4.28        1.32   142.49   0.593
  sub63                      7.22       0.00       0.00       2.09       3.52       0.00       3.52        1.07   129.10   0.488
  sub64                      7.22       0.00       0.00       1.08       3.61       0.00       3.61        1.10   106.54   0.500
  sub65                      7.22       0.00       0.00       0.94       3.66       0.00       3.66        1.13   108.21   0.507
  sub66                      7.22       0.00       0.00       2.09       3.14       0.00       3.14        0.96    97.28   0.435
  sub67                      7.22       0.00       0.00       0.58       4.65       0.00       4.65        1.44   180.98   0.644
  sub68                      7.22       0.00       0.00       1.01       4.22       0.00       4.22        1.30   153.18   0.584
  sub69                      7.22       0.00       0.00       1.08       4.50       0.00       4.50        1.05   150.30   0.622
  sub70                      7.22       4.59       0.00       4.02       5.68       0.00       5.68        1.30   127.11   0.481
  sub71                      7.22       0.00       0.00       0.58       4.12       0.00       4.12        0.97    99.87   0.570
  sub72                      7.22       0.00       0.00       0.51       3.01       0.00       3.01        0.61    48.25   0.416
  sub73                      7.22       5.52       0.00       4.33       5.90       0.00       5.90        1.39   110.44   0.463
  sub74                      7.22       0.00       0.00       5.42       1.35       0.00       1.35        0.54    83.48   0.187
  
  
  ******************
  Node Depth Summary
  ******************
  
  ---------------------------------------------------------------------------------
                                 Average  Maximum  Maximum  Time of Max    Reported
                                   Depth    Depth      HGL   Occurrence   Max Depth
  Node                 Type       Meters   Meters   Meters  days hr:min      Meters
  ---------------------------------------------------------------------------------
  WS02001211           JUNCTION     0.65     0.71     5.55     0  02:31        0.71
  WS02001212           JUNCTION     0.38     0.44     5.51     0  02:31        0.44
  WS02001213           JUNCTION     0.60     0.70     5.46     0  02:32        0.70
  WS02003069           JUNCTION     0.42     0.55     5.13     0  02:33        0.55
  WS02003072           JUNCTION     0.48     0.61     4.98     0  02:34        0.61
  WS02003073           JUNCTION     0.29     0.37     4.44     0  02:34        0.37
  WS02003060           JUNCTION     0.37     0.49     5.42     0  02:32        0.49
  WS02003066           JUNCTION     0.22     0.30     5.86     0  02:33        0.30
  WS02003059           JUNCTION     0.66     0.76     5.45     0  02:32        0.76
  WS02003067           JUNCTION     0.54     0.71     6.03     0  02:33        0.71
  WS02004401           JUNCTION     0.64     0.87     6.87     0  02:29        0.87
  WS02004402           JUNCTION     0.67     0.89     6.85     0  02:29        0.89
  WS02004403           JUNCTION     0.69     0.91     6.84     0  02:29        0.91
  WS02004404           JUNCTION     0.77     0.98     6.83     0  02:29        0.98
  WS02004406           JUNCTION     0.77     0.97     6.80     0  02:29        0.97
  WS02004409           JUNCTION     0.46     0.68     6.45     0  02:32        0.68
  WS02004410           JUNCTION     0.48     0.69     6.41     0  02:32        0.69
  WS02004411           JUNCTION     0.49     0.70     6.38     0  02:32        0.70
  WS02004412           JUNCTION     0.51     0.71     6.35     0  02:33        0.71
  WS02004413           JUNCTION     0.66     0.87     6.34     0  02:33        0.87
  WS02004405           JUNCTION     0.76     0.97     6.82     0  02:29        0.97
  WS02006109           JUNCTION     0.71     0.99     7.61     0  02:26        0.99
  WS02006110           JUNCTION     0.71     0.94     7.52     0  02:26        0.93
  WS02006111           JUNCTION     0.20     0.29     7.00     0  02:26        0.29
  WS02006112           JUNCTION     0.80     1.11     7.00     0  02:26        1.08
  WS02006113           JUNCTION     0.31     0.46     7.35     0  02:26        0.46
  WS02006115           JUNCTION     0.53     0.77     6.91     0  02:28        0.77
  WS02006116           JUNCTION     0.61     0.85     6.89     0  02:29        0.85
  WS02006230           JUNCTION     0.66     1.03     7.77     0  02:27        1.03
  WS02006231           JUNCTION     0.44     0.69     7.81     0  02:28        0.69
  WS02006232           JUNCTION     0.57     0.81     7.85     0  02:28        0.81
  WS02006234           JUNCTION     0.48     0.74     7.89     0  02:29        0.74
  WS02006235           JUNCTION     0.51     0.76     7.93     0  02:29        0.76
  WS02006238           JUNCTION     0.53     0.79     7.93     0  02:29        0.79
  WS02006240           JUNCTION     0.41     0.69     7.98     0  02:30        0.69
  WS02006242           JUNCTION     0.45     0.74     8.01     0  02:30        0.74
  WS02006243           JUNCTION     0.32     0.61     8.03     0  02:30        0.61
  WS02006245           JUNCTION     0.29     0.57     8.06     0  02:30        0.57
  WS02006247           JUNCTION     0.30     0.58     8.08     0  02:31        0.58
  WS02006248           JUNCTION     0.25     0.51     8.10     0  02:31        0.51
  WS02006249           JUNCTION     0.28     0.52     8.12     0  02:31        0.52
  WS02006239           JUNCTION     0.47     0.75     7.96     0  02:29        0.75
  WS02006251           JUNCTION     0.27     0.49     8.16     0  02:31        0.49
  WS02006252           JUNCTION     0.23     0.35     8.59     0  02:16        0.35
  WS02006253           JUNCTION     0.29     0.52     8.16     0  02:31        0.52
  WS02006256           JUNCTION     1.05     2.35     9.28     0  00:00        1.19
  WS02004138           JUNCTION     0.15     0.17     7.42     0  00:00        0.17
  WS02004407           JUNCTION     0.21     0.30     6.61     0  02:29        0.30
  WS02006228           JUNCTION     0.70     1.03     7.68     0  02:26        1.03
  WS02006229           JUNCTION     0.68     1.03     7.72     0  02:26        1.03
  WS02006280           JUNCTION     0.06     0.17     8.44     0  02:16        0.17
  WS02006284           JUNCTION     0.36     0.51     8.91     0  02:16        0.51
  WS02006287           JUNCTION     0.09     0.25     9.20     0  02:15        0.25
  WSF200               JUNCTION     0.20     0.32     5.55     0  02:34        0.32
  HS02004901           JUNCTION     0.12     0.26    10.08     0  02:13        0.26
  HS02004881           JUNCTION     0.01     0.03     9.06     0  02:15        0.03
  HS02004876           JUNCTION     0.04     0.11     9.14     0  02:10        0.11
  HS02004870           JUNCTION     0.01     0.05     9.34     0  02:16        0.05
  HS02004862           JUNCTION     0.02     0.06     9.44     0  02:17        0.06
  HS02004856           JUNCTION     0.08     0.11     9.54     0  02:16        0.11
  HS02004852           JUNCTION     0.01     0.03     9.55     0  02:17        0.03
  HS02004848           JUNCTION     0.01     0.03     9.63     0  02:16        0.03
  HS02004842           JUNCTION     0.33     0.36     9.63     0  02:16        0.36
  HS02004837           JUNCTION     0.03     0.05     9.63     0  02:16        0.05
  HS02004830           JUNCTION     0.04     0.07     9.54     0  02:16        0.07
  HS02004824           JUNCTION     0.02     0.05     9.45     0  02:19        0.05
  HS02004817           JUNCTION     0.43     0.55     9.40     0  02:16        0.55
  HS02004807           JUNCTION     0.12     0.23     9.40     0  02:16        0.23
  HS02004802           JUNCTION     0.16     0.26     9.39     0  02:16        0.26
  HS02004799           JUNCTION     0.11     0.30     9.51     0  02:14        0.30
  HS02004792           JUNCTION     0.03     0.12     9.64     0  02:13        0.12
  HS02004788           JUNCTION     0.02     0.09     9.99     0  02:14        0.09
  HS02004785           JUNCTION     0.04     0.16    10.06     0  02:14        0.16
  HS02004777           JUNCTION     0.14     0.28    10.08     0  02:13        0.28
  HS02004770           JUNCTION     0.11     0.25    10.08     0  02:13        0.25
  HS02004480           JUNCTION     0.07     0.23     9.47     0  02:14        0.23
  HS02004479           JUNCTION     0.11     0.27     9.47     0  02:14        0.27
  HS02004478           JUNCTION     0.06     0.15     9.38     0  02:15        0.15
  YS02001745           JUNCTION     0.49     0.85     8.36     0  06:02        0.85
  YS02001748           JUNCTION     0.87     1.29     8.36     0  06:03        1.28
  YS02001751           JUNCTION     1.05     1.77     8.65     0  03:33        1.48
  YS02001754           JUNCTION     1.30     1.81     8.42     0  03:33        1.76
  YS02001762           JUNCTION     1.49     1.98     8.38     0  06:04        1.97
  YS02001765           JUNCTION     1.45     1.93     8.38     0  05:58        1.92
  YS02001767           JUNCTION     1.41     1.89     8.38     0  05:50        1.88
  YS02001770           JUNCTION     1.41     1.88     8.38     0  05:50        1.88
  YS02001774           JUNCTION     1.48     1.95     8.38     0  03:19        1.95
  YS02001779           JUNCTION     1.23     1.68     8.37     0  03:15        1.68
  YS02001882           JUNCTION     0.34     0.56     7.28     0  02:51        0.56
  YS02001884           JUNCTION     0.43     0.66     7.27     0  02:52        0.66
  YS02001759           JUNCTION     1.53     2.01     8.38     0  05:50        2.01
  YS02001887           JUNCTION     0.51     0.74     7.27     0  02:52        0.74
  YS02001890           JUNCTION     0.54     0.77     7.27     0  02:52        0.77
  YS02001898           JUNCTION     0.31     0.52     7.26     0  02:52        0.52
  YS02001901           JUNCTION     0.43     0.65     7.26     0  02:52        0.65
  YS02001904           JUNCTION     0.41     0.62     7.25     0  02:53        0.62
  YS02001907           JUNCTION     0.73     0.97     7.25     0  02:53        0.97
  YS02001910           JUNCTION     0.52     0.75     7.25     0  02:54        0.75
  YS02001915           JUNCTION     0.32     0.54     7.25     0  02:54        0.54
  YS02001918           JUNCTION     0.10     0.19     7.25     0  02:53        0.19
  YS02001619           JUNCTION     1.01     1.51     8.44     0  04:17        1.45
  YS02001629           JUNCTION     1.36     1.84     8.39     0  05:47        1.83
  YS02001641           JUNCTION     1.47     1.93     8.37     0  05:48        1.92
  YS02001644           JUNCTION     1.47     1.92     8.35     0  05:36        1.92
  YS02001652           JUNCTION     1.31     2.06     8.65     0  03:29        1.78
  YS02001655           JUNCTION     1.08     2.05     8.90     0  03:29        1.54
  YS02001920           JUNCTION     0.20     0.26     7.27     0  02:53        0.26
  YS02001923           JUNCTION     0.08     0.10     7.36     0  03:01        0.10
  YS02001926           JUNCTION     0.16     0.20     7.65     0  03:01        0.20
  YS02001929           JUNCTION     0.08     0.10     7.80     0  03:01        0.10
  YS02001658           JUNCTION     0.82     1.26     8.40     0  06:01        1.26
  YS02001661           JUNCTION     0.60     1.00     8.41     0  05:59        1.00
  YS02001664           JUNCTION     0.22     0.49     8.41     0  05:56        0.49
  YS02001622           JUNCTION     1.04     1.52     8.42     0  04:17        1.48
  YS02001633           JUNCTION     1.45     1.93     8.39     0  05:45        1.91
  YS02001649           JUNCTION     1.50     1.99     8.38     0  06:03        1.98
  YS02001757           JUNCTION     1.63     2.11     8.37     0  05:59        2.11
  YS02001895           JUNCTION     0.30     0.52     7.26     0  02:52        0.52
  YS02001625           JUNCTION     1.32     1.78     8.38     0  04:16        1.78
  YS02163301           JUNCTION     1.39     1.87     8.39     0  05:47        1.86
  YS02163601           JUNCTION     1.50     1.98     8.38     0  05:46        1.97
  YS02164001           JUNCTION     1.45     1.92     8.37     0  05:46        1.90
  YS02001647           JUNCTION     1.30     1.76     8.37     0  05:49        1.75
  YSB1154              JUNCTION     0.25     0.42     9.48     0  02:14        0.42
  YSB6556              JUNCTION     0.14     0.31     9.48     0  02:14        0.31
  YSB1174              JUNCTION     0.20     0.37     9.48     0  02:14        0.37
  YSB1171              JUNCTION     0.40     0.57     9.48     0  02:14        0.57
  YS02006553           JUNCTION     0.74     0.97     7.25     0  02:53        0.97
  YS02006561           JUNCTION     0.17     0.29     6.95     0  02:47        0.28
  YS02006556           JUNCTION     0.71     0.93     7.25     0  02:51        0.93
  YS02006558           JUNCTION     0.75     0.98     7.25     0  02:51        0.98
  YS02001783           JUNCTION     0.33     0.72     6.87     0  02:49        0.71
  YS02001784           JUNCTION     0.37     0.78     6.85     0  02:49        0.76
  YS02001786           JUNCTION     0.34     0.76     6.79     0  02:50        0.75
  YS02001788           JUNCTION     0.30     0.77     6.75     0  02:49        0.77
  YS02001790           JUNCTION     0.42     1.84     7.49     0  02:46        1.06
  YS02001791           JUNCTION     0.42     2.52     7.99     0  02:45        1.18
  YS02001793           JUNCTION     0.60     2.92     7.75     0  02:43        1.78
  WS02004139           JUNCTION     0.59     0.66     5.57     0  03:10        0.66
  WSC                  OUTFALL      0.29     0.37     1.04     0  02:35        0.37
  3                    OUTFALL      0.09     0.23     6.23     0  00:00        0.19
  4                    OUTFALL      0.00     0.02     7.02     0  02:31        0.02
  5                    OUTFALL      0.00     0.00     5.00     0  00:00        0.00
  JK-storage           STORAGE      2.35     5.80     6.60     0  02:47        5.80
  CC-storage           STORAGE      0.87     1.37     8.37     0  05:59        1.37
  XR-storage           STORAGE      6.61     7.72     5.72     0  03:48        7.72
  
  
  *******************
  Node Inflow Summary
  *******************
  
  -------------------------------------------------------------------------------------------------
                                  Maximum  Maximum                  Lateral       Total        Flow
                                  Lateral    Total  Time of Max      Inflow      Inflow     Balance
                                   Inflow   Inflow   Occurrence      Volume      Volume       Error
  Node                 Type           LPS      LPS  days hr:min    10^6 ltr    10^6 ltr     Percent
  -------------------------------------------------------------------------------------------------
  WS02001211           JUNCTION      7.35   293.03     0  03:19       0.207        6.88       0.422
  WS02001212           JUNCTION      0.00   293.46     0  03:19           0        6.85       0.239
  WS02001213           JUNCTION      0.00   293.84     0  03:18           0        6.83       0.277
  WS02003069           JUNCTION      0.32   851.82     0  02:33     0.00902        13.2       0.156
  WS02003072           JUNCTION      0.00   851.70     0  02:33           0        13.2       0.207
  WS02003073           JUNCTION      1.82   853.53     0  02:34      0.0514        13.2       0.219
  WS02003060           JUNCTION     16.53   851.40     0  02:32       0.466        13.2       0.151
  WS02003066           JUNCTION      0.00   556.11     0  02:33           0           6       0.052
  WS02003059           JUNCTION      0.00   294.54     0  03:18           0        6.82       0.446
  WS02003067           JUNCTION      0.00   556.09     0  02:33           0        6.01       0.117
  WS02004401           JUNCTION      0.00   561.40     0  02:28           0        6.18       0.265
  WS02004402           JUNCTION      0.00   560.60     0  02:28           0        6.17       0.257
  WS02004403           JUNCTION      0.00   559.97     0  02:29           0        6.15       0.240
  WS02004404           JUNCTION      0.16   559.92     0  02:29     0.00457        6.14       0.186
  WS02004406           JUNCTION      0.00   559.97     0  02:29           0        6.11       0.457
  WS02004409           JUNCTION      0.00   558.99     0  02:29           0        6.08       0.167
  WS02004410           JUNCTION      0.00   557.19     0  02:30           0        6.07       0.199
  WS02004411           JUNCTION      0.00   556.38     0  02:32           0        6.06       0.213
  WS02004412           JUNCTION      0.00   556.32     0  02:32           0        6.05       0.243
  WS02004413           JUNCTION      0.00   556.25     0  02:33           0        6.03       0.379
  WS02004405           JUNCTION      0.04   559.94     0  02:29     0.00107        6.13       0.284
  WS02006109           JUNCTION      1.23   553.72     0  02:26      0.0347        6.24       0.301
  WS02006110           JUNCTION      0.00   553.67     0  02:26           0        6.22       0.244
  WS02006111           JUNCTION      0.00   574.81     0  02:27           0         6.2       0.043
  WS02006112           JUNCTION     12.43   567.08     0  02:26      0.0341        6.23       0.363
  WS02006113           JUNCTION      0.00   554.36     0  02:26           0        6.21       0.100
  WS02006115           JUNCTION      0.00   578.27     0  02:26           0        6.21       0.225
  WS02006116           JUNCTION      0.00   563.48     0  02:28           0         6.2       0.226
  WS02006230           JUNCTION     10.28   335.32     0  02:59        0.29        5.13       0.247
  WS02006231           JUNCTION      0.00   324.35     0  02:59           0        4.84       0.071
  WS02006232           JUNCTION      0.00   324.31     0  02:59           0        4.85       0.255
  WS02006234           JUNCTION      0.00   323.81     0  02:58           0        4.86       0.072
  WS02006235           JUNCTION      0.00   323.54     0  02:58           0        4.89       0.169
  WS02006238           JUNCTION      0.00   283.23     0  02:40           0         2.5       0.187
  WS02006240           JUNCTION      0.00   270.69     0  02:40           0        2.49       0.199
  WS02006242           JUNCTION      0.00   264.60     0  02:41           0        2.48       0.225
  WS02006243           JUNCTION      0.00   256.41     0  02:41           0        2.48      -0.051
  WS02006245           JUNCTION      0.00   251.77     0  02:41           0        2.48       0.083
  WS02006247           JUNCTION      0.00   248.57     0  02:21           0        2.48       0.006
  WS02006248           JUNCTION      0.00   250.50     0  02:21           0        2.48      -0.022
  WS02006249           JUNCTION      0.00   252.66     0  02:19           0        2.48       0.047
  WS02006239           JUNCTION      0.00   277.54     0  02:40           0         2.5       0.239
  WS02006251           JUNCTION      0.08   254.68     0  02:19     0.00217        2.48       0.001
  WS02006252           JUNCTION      0.00   200.00     0  02:16           0        2.29       0.003
  WS02006253           JUNCTION      1.87    56.82     0  02:15     0.00441       0.194      -0.216
  WS02006256           JUNCTION      0.00   600.00     0  00:00           0        5.08       0.046
  WS02004138           JUNCTION      0.00   285.00     0  00:00           0         6.7       0.065
  WS02004407           JUNCTION      0.00   559.48     0  02:29           0        6.09       0.078
  WS02006228           JUNCTION      0.00   552.49     0  02:26           0        6.22       0.196
  WS02006229           JUNCTION      0.00   552.10     0  02:26           0        6.23       0.160
  WS02006280           JUNCTION      0.00   283.61     0  02:16           0        1.11       0.006
  WS02006284           JUNCTION      0.10   283.59     0  02:16      0.0027        1.12       0.100
  WS02006287           JUNCTION      0.00   283.46     0  02:15           0        1.11       0.065
  WSF200               JUNCTION      0.00   556.13     0  02:33           0           6       0.039
  HS02004901           JUNCTION     15.34    15.34     0  02:09       0.041      0.0412       4.460
  HS02004881           JUNCTION      6.25    55.33     0  02:15      0.0179        0.19       0.200
  HS02004876           JUNCTION     10.07    49.33     0  02:16      0.0344       0.173       0.309
  HS02004870           JUNCTION     11.07    39.43     0  02:15      0.0339       0.139       0.077
  HS02004862           JUNCTION      9.16    29.04     0  02:16      0.0396       0.105       0.162
  HS02004856           JUNCTION      8.21    19.93     0  02:15      0.0255      0.0668       2.202
  HS02004852           JUNCTION      0.00    12.20     0  02:16           0      0.0413       0.127
  HS02004848           JUNCTION     18.60    18.60     0  02:19      0.0812      0.0812       0.054
  HS02004842           JUNCTION      0.00     7.06     0  02:28           0      0.0529      32.606
  HS02004837           JUNCTION     24.19    30.02     0  02:15       0.238       0.278       0.293
  HS02004830           JUNCTION      0.15    30.15     0  02:16     0.00423       0.268       0.462
  HS02004824           JUNCTION     21.07    50.96     0  02:19       0.106       0.373       0.144
  HS02004817           JUNCTION      0.60    51.55     0  02:19      0.0169        0.39       4.468
  HS02004807           JUNCTION     20.80    70.59     0  02:17      0.0623       0.435       0.980
  HS02004802           JUNCTION      0.00    71.07     0  02:18           0       0.431       0.948
  HS02004799           JUNCTION     16.06   181.62     0  02:13      0.0505       0.596       0.385
  HS02004792           JUNCTION     71.34   165.79     0  02:13       0.218       0.546       0.074
  HS02004788           JUNCTION     23.50    96.41     0  02:13       0.117       0.329       0.118
  HS02004785           JUNCTION      0.15    73.20     0  02:13     0.00423       0.214       0.227
  HS02004777           JUNCTION      0.03    73.51     0  02:12    0.000846       0.214       2.481
  HS02004770           JUNCTION     60.47    74.61     0  02:10       0.175       0.215       1.462
  HS02004480           JUNCTION      0.00   214.30     0  02:14           0       0.698       0.109
  HS02004479           JUNCTION      0.00    33.35     0  02:15           0       0.115       0.639
  HS02004478           JUNCTION      0.00   283.45     0  02:15           0        1.11       0.054
  YS02001745           JUNCTION    112.07   269.09     0  04:04        1.14        1.24       0.941
  YS02001748           JUNCTION      0.04   436.11     0  03:11     0.00127        1.29       1.688
  YS02001751           JUNCTION      0.01   422.30     0  03:14     0.00031        1.18       1.817
  YS02001754           JUNCTION      0.26   190.46     0  03:15     0.00733         1.1       2.174
  YS02001762           JUNCTION      0.00   169.16     0  03:00           0        1.25       1.699
  YS02001765           JUNCTION      0.00   169.04     0  03:00           0        1.25       1.956
  YS02001767           JUNCTION      0.54   168.43     0  03:00      0.0151        1.27       2.861
  YS02001770           JUNCTION    142.64   187.25     0  02:35        1.32        1.35       2.338
  YS02001774           JUNCTION      0.00    54.22     0  03:16           0      0.0923      37.252
  YS02001779           JUNCTION      0.01    54.24     0  03:16    0.000141      0.0414      57.773
  YS02001882           JUNCTION      0.00     5.21     0  02:07           0     0.00695      35.681
  YS02001884           JUNCTION      0.00    14.86     0  02:09           0      0.0273      23.539
  YS02001759           JUNCTION    138.99   305.58     0  03:00        1.23        2.44       0.944
  YS02001887           JUNCTION    181.43   182.49     0  02:41        1.45        1.46       0.516
  YS02001890           JUNCTION      0.00   181.84     0  02:40           0        1.43       0.576
  YS02001898           JUNCTION      0.00   181.03     0  02:41           0        1.42       0.175
  YS02001901           JUNCTION      0.00   181.04     0  02:46           0        1.42       0.414
  YS02001904           JUNCTION      0.00   180.76     0  02:42           0        1.42       0.385
  YS02001907           JUNCTION      0.00   326.92     0  02:54           0        3.07       0.743
  YS02001910           JUNCTION      0.00   152.33     0  03:03           0        1.66       0.642
  YS02001915           JUNCTION     99.89   151.26     0  03:01       0.973        1.66       0.299
  YS02001918           JUNCTION      0.00    51.53     0  03:04           0        0.69       0.194
  YS02001619           JUNCTION     97.28    97.28     0  02:57       0.962       0.962       1.264
  YS02001629           JUNCTION      0.00   213.81     0  03:22           0       0.889       3.301
  YS02001641           JUNCTION      0.00   221.86     0  03:00           0        1.92       1.101
  YS02001644           JUNCTION    106.58   327.83     0  03:00         1.1         3.6       0.730
  YS02001652           JUNCTION      0.00   234.20     0  03:03           0           1       2.122
  YS02001655           JUNCTION      0.15   457.18     0  03:00     0.00434        1.08       2.002
  YS02001920           JUNCTION      2.87    51.11     0  03:01      0.0809       0.693       0.331
  YS02001923           JUNCTION      0.04    48.24     0  03:01     0.00106       0.612       0.059
  YS02001926           JUNCTION      0.05    48.29     0  03:01     0.00147       0.613       0.413
  YS02001929           JUNCTION     48.25    48.25     0  03:01       0.612       0.612       0.058
  YS02001658           JUNCTION      0.00   404.50     0  02:59           0        1.19       1.675
  YS02001661           JUNCTION      0.00   272.72     0  03:28           0        1.42       1.429
  YS02001664           JUNCTION    129.10   201.91     0  05:07        1.07        1.34       0.437
  YS02001622           JUNCTION      0.00   152.02     0  03:24           0       0.955       3.392
  YS02001633           JUNCTION    108.41   224.31     0  03:00        1.13        1.97       1.629
  YS02001649           JUNCTION      0.00   539.05     0  03:03           0        3.91       0.946
  YS02001757           JUNCTION      0.00   835.06     0  03:01           0        6.81       1.374
  YS02001895           JUNCTION      0.00   181.55     0  02:43           0        1.42       0.284
  YS02001625           JUNCTION      0.00   213.58     0  03:22           0       0.929       4.385
  YS02163301           JUNCTION      0.00   116.47     0  03:05           0       0.869       2.814
  YS02163601           JUNCTION      0.11   223.57     0  03:00      0.0031        1.93       1.562
  YS02164001           JUNCTION      0.00   223.01     0  03:00           0        1.91       1.044
  YS02001647           JUNCTION      0.00   326.99     0  03:00           0        3.06       0.878
  YSB1154              JUNCTION     17.91    17.91     0  02:13      0.0612      0.0625       2.365
  YSB6556              JUNCTION      0.00    17.93     0  02:14           0      0.0634       2.007
  YSB1174              JUNCTION     17.39    17.39     0  02:08      0.0445      0.0454       2.907
  YSB1171              JUNCTION      0.00    33.26     0  02:14           0       0.114       5.851
  YS02006553           JUNCTION      0.00   327.63     0  03:03           0        3.05       0.481
  YS02006561           JUNCTION      0.00   517.35     0  02:51           0        4.32       0.009
  YS02006556           JUNCTION      0.00   328.52     0  03:03           0        3.06       0.348
  YS02006558           JUNCTION    154.06   483.99     0  02:40        1.32        4.35       0.115
  YS02001783           JUNCTION      0.00   493.38     0  02:48           0        4.32       0.041
  YS02001784           JUNCTION      1.06   499.20     0  02:49      0.0299        4.35       0.065
  YS02001786           JUNCTION      0.06   500.67     0  02:50     0.00159        4.35       0.063
  YS02001788           JUNCTION      0.07   507.92     0  02:50       0.002        4.35       0.036
  YS02001790           JUNCTION      0.15   501.52     0  02:50     0.00437        4.35       0.044
  YS02001791           JUNCTION      0.00   507.01     0  02:45           0        4.35       0.018
  YS02001793           JUNCTION      0.00   576.75     0  02:43           0        4.35       0.006
  WS02004139           JUNCTION      0.32   290.33     0  00:00     0.00905         6.7       0.487
  WSC                  OUTFALL       0.00   853.47     0  02:35           0        13.2       0.000
  3                    OUTFALL       0.00   597.65     0  00:00           0        2.67       0.000
  4                    OUTFALL       0.00     4.93     0  02:31           0     0.00195       0.000
  5                    OUTFALL       0.00     0.00     0  00:00           0           0       0.000 ltr
  JK-storage           STORAGE       0.00   823.74     0  02:42           0         4.5     -17.637
  CC-storage           STORAGE       0.00   829.34     0  02:56           0         6.2       1.057
  XR-storage           STORAGE     380.78   380.78     0  02:55        7.57        8.17      -0.000
  
  
  **********************
  Node Surcharge Summary
  **********************
  
  Surcharging occurs when water rises above the top of the highest conduit.
  ---------------------------------------------------------------------
                                               Max. Height   Min. Depth
                                   Hours       Above Crown    Below Rim
  Node                 Type      Surcharged         Meters       Meters
  ---------------------------------------------------------------------
  WS02006109           JUNCTION        1.09          0.168        1.652
  WS02006110           JUNCTION        0.27          0.025        1.825
  WS02006112           JUNCTION        0.46          0.113        1.567
  WS02006232           JUNCTION        0.78          0.109        1.371
  WS02006234           JUNCTION        0.16          0.017        1.223
  WS02006235           JUNCTION        0.26          0.052        1.238
  WS02006238           JUNCTION        0.28          0.068        1.362
  WS02006242           JUNCTION        0.11          0.012        0.808
  WS02006239           JUNCTION        0.11          0.009        1.281
  WS02006256           JUNCTION        0.01          1.050        0.000
  WS02006228           JUNCTION        1.07          0.200        2.000
  YS02001748           JUNCTION        3.12          0.207        0.983
  YS02001751           JUNCTION        4.15          0.771        0.429
  YS02001754           JUNCTION        4.81          0.762        0.388
  YS02001762           JUNCTION        5.39          0.977        0.173
  YS02001765           JUNCTION        5.37          0.927        0.173
  YS02001767           JUNCTION        5.34          0.887        0.143
  YS02001770           JUNCTION        5.29          0.851        0.069
  YS02001774           JUNCTION        5.39          0.955        0.095
  YS02001779           JUNCTION        4.66          0.680        0.000
  YS02001759           JUNCTION        5.43          1.012        0.198
  YS02001619           JUNCTION        4.05          0.507        0.103
  YS02001629           JUNCTION        4.07          0.463        0.007
  YS02001641           JUNCTION        5.38          0.931        0.169
  YS02001644           JUNCTION        5.39          0.920        0.000
  YS02001652           JUNCTION        5.02          1.028        0.102
  YS02001655           JUNCTION        4.28          1.045        0.155
  YS02001658           JUNCTION        3.14          0.261        1.039
  YS02001622           JUNCTION        4.13          0.521        0.099
  YS02001633           JUNCTION        5.36          0.915        0.145
  YS02001649           JUNCTION        5.41          0.986        0.064
  YS02001757           JUNCTION        5.49          1.112        0.098
  YS02001625           JUNCTION        5.17          0.780        0.000
  YS02163301           JUNCTION        5.33          0.874        0.156
  YS02163601           JUNCTION        5.40          0.979        0.101
  YS02164001           JUNCTION        5.37          0.915        0.185
  YS02001647           JUNCTION        5.12          0.755        0.145
  YS02001790           JUNCTION        1.30          1.045        0.112
  YS02001791           JUNCTION        1.43          1.716        0.204
  YS02001793           JUNCTION        1.64          1.919        0.681
  
  
  *********************
  Node Flooding Summary
  *********************
  
  Flooding refers to all water that overflows a node, whether it ponds or not.
  --------------------------------------------------------------------------
                                                             Total   Maximum
                                 Maximum   Time of Max       Flood    Ponded
                        Hours       Rate    Occurrence      Volume     Depth
  Node                 Flooded       LPS   days hr:min    10^6 ltr    Meters
  --------------------------------------------------------------------------
  WS02006256              0.01    406.11      0  00:00       0.001     0.000
  YS02001779              0.46      5.95      0  03:16       0.002     0.000
  YS02001644              2.06    300.40      0  06:05       1.105     0.000
  YS02001625              0.02      7.80      0  04:18       0.000     0.000
  JK-storage              0.99    201.57      0  02:50       0.380     0.000
  XR-storage              3.31     76.28      0  05:30       0.541     0.000
  
  
  **********************
  Storage Volume Summary
  **********************
  
  --------------------------------------------------------------------------------------------------
                         Average     Avg  Evap Exfil       Maximum     Max    Time of Max    Maximum
                          Volume    Pcnt  Pcnt  Pcnt        Volume    Pcnt     Occurrence    Outflow
  Storage Unit           1000 m3    Full  Loss  Loss       1000 m3    Full    days hr:min        LPS
  --------------------------------------------------------------------------------------------------
  JK-storage               0.118      40     0     0         0.291     100       0  02:47     600.00
  CC-storage               2.417      15     0     0         3.815      24       0  05:59     200.00
  XR-storage               0.794      86     0     0         0.926     100       0  03:48     285.00
  
  
  ***********************
  Outfall Loading Summary
  ***********************
  
  -----------------------------------------------------------
                         Flow       Avg       Max       Total
                         Freq      Flow      Flow      Volume
  Outfall Node           Pcnt       LPS       LPS    10^6 ltr
  -----------------------------------------------------------
  WSC                   99.99    543.53    853.47      13.209
  3                     92.74    147.58    597.65       2.671
  4                      4.14      2.53      4.93       0.002
  5                      0.00      0.00      0.00       0.000
  -----------------------------------------------------------
  System                49.22    693.65   1014.57      15.881
  
  
  ********************
  Link Flow Summary
  ********************
  
  -----------------------------------------------------------------------------
                                 Maximum  Time of Max   Maximum    Max/    Max/
                                  |Flow|   Occurrence   |Veloc|    Full    Full
  Link                 Type          LPS  days hr:min     m/sec    Flow   Depth
  -----------------------------------------------------------------------------
  WS02003066WSF200     CONDUIT    556.13     0  02:33      2.73    0.09    0.24
  WS02006287WS02006284 CONDUIT    283.49     0  02:16      1.80    0.13    0.25
  WS02006284WS02006280 CONDUIT    283.61     0  02:16      2.04    0.12    0.23
  WS02006280WS02006229 CONDUIT    283.61     0  02:16      3.29    0.06    0.17
  WS02006229WS02006228 CONDUIT    552.49     0  02:26      1.10    1.83    1.00
  WS02006256WS02006235 CONDUIT    177.52     0  00:01      2.73    1.88    1.00
  WS02006253WS02006251 CONDUIT     55.92     0  02:13      0.55    0.17    0.72
  WS02006252WS02006251 CONDUIT    200.86     0  02:16      1.97    0.74    0.76
  WS02006251WS02006249 CONDUIT    252.66     0  02:19      1.00    0.73    0.73
  WS02006249WS02006248 CONDUIT    250.50     0  02:21      1.09    1.37    0.72
  WS02006248WS02006247 CONDUIT    248.57     0  02:21      1.05    0.54    0.77
  WS02006247WS02006245 CONDUIT    251.77     0  02:41      1.00    2.00    0.82
  WS02006245WS02006243 CONDUIT    256.41     0  02:41      1.03    0.76    0.84
  WS02006243WS02006242 CONDUIT    264.60     0  02:41      0.82    0.57    0.94
  WS02006242WS02006240 CONDUIT    270.69     0  02:40      0.75    1.08    0.98
  WS02006240WS02006239 CONDUIT    277.54     0  02:40      0.78    0.87    0.99
  WS02006239WS02006238 CONDUIT    283.23     0  02:40      0.75    0.91    1.00
  WS02006238WS02006235 CONDUIT    285.23     0  02:40      1.32    0.64    1.00
  WS02006235WS02006234 CONDUIT    323.81     0  02:58      0.94    3.42    1.00
  WS02006234WS02006232 CONDUIT    324.31     0  02:59      1.17    0.66    1.00
  WS02006232WS02006231 CONDUIT    324.35     0  02:59      0.94    0.68    0.98
  WS02006231WS02006230 CONDUIT    325.05     0  02:59      1.29    4.93    0.95
  WS02006230WS02006229 CONDUIT    336.71     0  03:08      0.87    7.49    1.00
  WS02006228WS02006109 CONDUIT    552.49     0  02:26      1.10    2.41    1.00
  WS02006116WS02004401 CONDUIT    561.40     0  02:28      0.78    0.77    0.86
  WS02006115WS02006116 CONDUIT    563.48     0  02:28      0.87    0.72    0.78
  WS02006113WS02006111 CONDUIT    574.81     0  02:27      2.48    0.69    0.47
  WS02006112WS02006115 CONDUIT    578.27     0  02:26      0.79    0.34    0.88
  WS02006111WS02006112 CONDUIT    559.03     0  02:26      1.55    0.27    0.68
  WS02006110WS02006113 CONDUIT    554.36     0  02:26      1.30    0.50    0.79
  WS02006109WS02006110 CONDUIT    553.67     0  02:26      1.10    1.06    1.00
  WS02004411WS02004412 CONDUIT    556.32     0  02:32      0.94    0.79    0.70
  WS02004401WS02004402 CONDUIT    560.60     0  02:28      0.77    0.67    0.88
  WS02004413WS02003067 CONDUIT    556.09     0  02:33      1.13    0.24    0.60
  WS02004412WS02004413 CONDUIT    556.25     0  02:33      0.84    0.37    0.79
  WS02004410WS02004411 CONDUIT    556.38     0  02:32      0.95    0.76    0.70
  WS02004409WS02004410 CONDUIT    557.19     0  02:30      0.98    0.72    0.69
  WS02004407WS02004409 CONDUIT    558.99     0  02:29      1.48    0.20    0.49
  WS02004406WS02004407 CONDUIT    559.48     0  02:29      1.06    0.25    0.63
  WS02004405WS02004406 CONDUIT    559.97     0  02:29      0.72    1.10    0.97
  WS02004404WS02004405 CONDUIT    559.90     0  02:29      0.72    5.49    0.97
  WS02004403WS02004404 CONDUIT    559.75     0  02:29      0.73    0.40    0.94
  WS02004402WS02004403 CONDUIT    559.97     0  02:29      0.75    0.80    0.90
  WS02004139WS02001211 CONDUIT    285.68     0  03:19      0.80    0.36    0.53
  WS02004138WS02004139 CONDUIT    290.01     0  00:00      3.34    0.06    0.39
  WS02003067WS02003066 CONDUIT    556.11     0  02:33      1.23    0.18    0.42
  WS02001213WS02003059 CONDUIT    294.54     0  03:18      0.80    0.49    0.72
  WS02001212WS02001213 CONDUIT    293.84     0  03:18      1.19    0.45    0.41
  WS02001211WS02001212 CONDUIT    293.46     0  03:19      0.67    0.22    0.58
  WS02003072WS02003073 CONDUIT    851.71     0  02:34      1.67    1.84    0.46
  WS02003069WS02003072 CONDUIT    851.70     0  02:33      1.57    0.41    0.48
  WS02003060WS02003069 CONDUIT    851.50     0  02:33      1.82    0.33    0.43
  WS02003059WS02003060 CONDUIT    295.50     0  03:17      0.82    0.19    0.62
  HS02004901HS02004770 CONDUIT     14.45     0  02:12      0.06    0.05    0.36
  HS02004876HS02004881 CONDUIT     49.55     0  02:15      0.73    0.53    0.10
  HS02004870HS02004876 CONDUIT     39.41     0  02:16      0.50    0.03    0.11
  HS02004842HS02004848 CONDUIT      7.06     0  02:28      0.04    0.00    0.28
  HS02004837HS02004842 CONDUIT      7.30     0  02:29      0.41    0.00    0.30
  HS02004830HS02004837 CONDUIT     30.00     0  02:16      0.49    0.03    0.09
  HS02004824HS02004830 CONDUIT     30.15     0  02:17      0.53    0.04    0.08
  HS02004817HS02004824 CONDUIT     50.95     0  02:19      0.17    0.02    0.43
  HS02004770HS02004777 CONDUIT     73.48     0  02:12      0.28    0.13    0.38
  HS02004799HS02004480 CONDUIT    181.36     0  02:14      0.70    0.23    0.37
  HS02004792HS02004799 CONDUIT    165.70     0  02:13      0.80    0.10    0.30
  HS02004788HS02004792 CONDUIT     96.33     0  02:14      0.94    0.06    0.15
  HS02004785HS02004788 CONDUIT     73.11     0  02:14      0.60    0.55    0.17
  HS02004777HS02004785 CONDUIT     73.05     0  02:13      0.34    0.09    0.31
  HS02004480HS02004478 CONDUIT    214.28     0  02:14      1.10    0.90    0.28
  HS02004479HS02004480 CONDUIT     33.64     0  02:16      0.16    0.03    0.36
  HS02004862HS02004870 CONDUIT     29.00     0  02:17      0.54    0.03    0.08
  HS02004848HS02004852 CONDUIT     12.20     0  02:16      0.36    0.01    0.05
  HS02004856HS02004862 CONDUIT     19.90     0  02:16      0.40    0.02    0.07
  HS02004852HS02004856 CONDUIT     12.17     0  02:17      0.17    0.01    0.10
  HS02004802HS02004478 CONDUIT     71.63     0  02:19      0.35    0.06    0.30
  HS02004478WS02006287 CONDUIT    283.46     0  02:15      1.50    0.08    0.21
  HS02004817HS02004807 CONDUIT     52.37     0  02:21      0.14    0.03    0.56
  HS02004807HS02004802 CONDUIT     71.07     0  02:18      0.30    0.14    0.34
  YS02001759YS02001757 CONDUIT    305.53     0  03:00      0.39    0.22    1.00
  YS02001762YS02001759 CONDUIT    169.48     0  03:00      0.22    0.20    1.00
  YS02001765YS02001762 CONDUIT    169.16     0  03:00      0.23    0.16    1.00
  YS02001770YS02001767 CONDUIT    167.89     0  03:00      0.31    0.67    1.00
  YS02001774YS02001770 CONDUIT     54.22     0  03:16      0.14    0.03    1.00
  YS02001779YS02001774 CONDUIT     54.24     0  03:16      0.08    0.03    1.00
  YS02001649YS02001757 CONDUIT    538.09     0  03:03      0.69    0.33    1.00
  YS02001767YS02001765 CONDUIT    169.04     0  03:00      0.26    0.21    1.00
  YS02006561YS02001783 CONDUIT    493.38     0  02:48      1.98    0.26    0.62
  YS02001783YS02001784 CONDUIT    498.14     0  02:49      1.41    0.69    0.93
  YS02001784YS02001785 CONDUIT    500.61     0  02:50      1.53    1.17    0.96
  YS02001788YS02001790 CONDUIT    501.36     0  02:50      2.07    0.37    0.98
  YS02001790YS02001791 CONDUIT    507.01     0  02:45      2.46    0.55    1.00
  YS02001791YS02001793 CONDUIT    576.75     0  02:43      4.97    0.25    1.00
  YS02001910YS02001907 CONDUIT    153.47     0  03:03      0.49    0.09    0.85
  YS02001786YS02001788 CONDUIT    507.85     0  02:50      2.02    0.98    0.95
  YS02001915YS02001910 CONDUIT    152.33     0  03:03      0.45    0.08    0.64
  YS02001918YS02001915 CONDUIT     53.94     0  03:09      0.44    0.03    0.36
  YS02001923YS02001920 CONDUIT     48.24     0  03:01      0.53    0.02    0.18
  YS02001926YS02001923 CONDUIT     48.20     0  03:01      0.58    0.07    0.16
  YS02001929YS02001926 CONDUIT     48.23     0  03:01      0.63    0.02    0.15
  YS02001920YS02001918 CONDUIT     51.53     0  03:04      0.53    0.05    0.22
  YS02001629YS02163301 CONDUIT    116.47     0  03:05      0.15    0.14    1.00
  YS02001619YS02001622 CONDUIT    152.02     0  03:24      0.71    0.22    1.00
  YS02001622YS02001625 CONDUIT    213.58     0  03:22      0.30    0.11    1.00
  YS02001625YS02001629 CONDUIT    213.81     0  03:22      0.28    0.10    1.00
  YS02163301YS02001633 CONDUIT    116.18     0  02:34      0.15    0.11    1.00
  YS02163601YS02164001 CONDUIT    223.01     0  03:00      0.28    0.20    1.00
  YS02164001YS02001641 CONDUIT    221.86     0  03:00      0.28    0.30    1.00
  YS02001641YS02001644 CONDUIT    221.26     0  03:00      0.28    0.72    1.00
  YS02001647YS02001649 CONDUIT    329.17     0  02:42      0.42    0.17    1.00
  YS02006553YS02006556 CONDUIT    328.52     0  03:03      0.43    0.28    0.93
  YS02006556YS02006558 CONDUIT    332.11     0  03:03      0.43    0.26    0.96
  YSB6556YSB1171       CONDUIT     18.25     0  02:17      0.07    0.02    0.63
  YS02001907YS02006553 CONDUIT    327.63     0  03:03      0.36    0.39    1.00
  YS02006558YS02006561 CONDUIT    517.35     0  02:51      2.80    1.14    0.63
  YS02001633YS02163601 CONDUIT    223.46     0  03:00      0.28    0.23    1.00
  YS02001644YS02001647 CONDUIT    326.99     0  03:00      0.42    0.19    1.00
  YS02001745YS02001748 CONDUIT    328.67     0  04:05      1.53    0.13    0.92
  YS02001748YS02001751 CONDUIT    422.29     0  03:14      1.18    0.21    1.00
  YS02001751YS02001754 CONDUIT    190.20     0  03:15      1.02    0.09    1.00
  YS02001754YS02001757 CONDUIT    201.13     0  03:06      0.33    0.08    1.00
  YS02001882YS02001884 CONDUIT      5.21     0  02:07      0.06    0.01    0.58
  YS02001884YS02001887 CONDUIT     14.86     0  02:09      0.06    0.02    0.67
  YS02001890YS02001895 CONDUIT    181.55     0  02:43      0.35    0.08    0.64
  YS02001895YS02001898 CONDUIT    181.03     0  02:41      0.50    0.31    0.50
  YS02001898YS02001901 CONDUIT    181.04     0  02:46      0.39    0.12    0.58
  YS02001901YS02001904 CONDUIT    180.76     0  02:42      0.35    0.28    0.64
  YS02001904YS02001907 CONDUIT    181.50     0  02:42      0.27    0.06    0.79
  YS02001887YS02001890 CONDUIT    181.84     0  02:40      0.30    0.31    0.73
  YS02001652YS02001649 CONDUIT    233.86     0  03:03      0.34    0.12    1.00
  YS02001655YS02001652 CONDUIT    234.20     0  03:03      1.09    0.11    1.00
  YS02001658YS02001655 CONDUIT    457.02     0  03:00      1.37    0.19    1.00
  YS02001661YS02001658 CONDUIT    328.81     0  03:17      1.59    0.13    0.97
  YS02001664YS02001661 CONDUIT    227.60     0  05:12      1.34    0.07    0.70
  YSB1154YSB6556       CONDUIT     17.93     0  02:14      0.19    0.03    0.52
  YSB1174YSB1171       CONDUIT     16.15     0  02:09      0.07    0.02    0.64
  YSB1171HS02004479    CONDUIT     33.35     0  02:15      0.54    0.02    0.50
  HS02004881HS02006253 CONDUIT     55.34     0  02:15      1.91    0.01    0.15
  YS02001793JiankangQianchi CONDUIT    823.74     0  02:42     13.13    0.07    1.00
  YS02001757CaochengTiaoxuchi CONDUIT    829.34     0  02:56      1.76    0.36    1.00
  WSF200WS02003060     CONDUIT    556.02     0  02:34      1.80    0.12    0.33
  1                    CONDUIT    853.47     0  02:35      3.19    0.30    0.37
  2                    CONDUIT      4.93     0  02:31      1.99    0.01    0.08
  3                    CONDUIT    597.65     0  00:00     10.05    0.95    0.86
  4                    CONDUIT      0.00     0  00:00      0.00    0.00    0.00
  CC-Pump-1            PUMP       200.00     0  02:16              1.00
  CC-Pump-2            PUMP         0.00     0  00:00              0.00
  JK-Pump-1            PUMP       300.00     0  00:00              1.00
  JK-Pump-2            PUMP       300.00     0  00:00              1.00
  XR-Pump-1            PUMP        95.00     0  02:20              1.00
  XR-Pump-2            PUMP        95.00     0  00:00              1.00
  XR-Pump-3            PUMP        95.00     0  00:00              1.00
  XR-Pump-4            PUMP        95.00     0  00:00              1.00
  
  
  ***************************
  Flow Classification Summary
  ***************************
  
  -------------------------------------------------------------------------------------
                      Adjusted    ---------- Fraction of Time in Flow Class ---------- 
                       /Actual         Up    Down  Sub   Sup   Up    Down  Norm  Inlet 
  Conduit               Length    Dry  Dry   Dry   Crit  Crit  Crit  Crit  Ltd   Ctrl  
  -------------------------------------------------------------------------------------
  WS02003066WSF200        1.00   0.08  0.00  0.00  0.00  0.92  0.00  0.00  0.64  0.00
  WS02006287WS02006284    1.00   0.04  0.02  0.00  0.63  0.31  0.00  0.00  0.76  0.00
  WS02006284WS02006280    1.00   0.05  0.00  0.00  0.00  0.00  0.00  0.95  0.00  0.00
  WS02006280WS02006229    1.00   0.05  0.00  0.00  0.00  0.00  0.00  0.95  0.00  0.00
  WS02006229WS02006228    1.00   0.00  0.00  0.00  0.98  0.00  0.00  0.02  0.00  0.00
  WS02006256WS02006235    1.00   0.00  0.00  0.00  0.99  0.01  0.00  0.00  0.00  0.00
  WS02006253WS02006251    1.00   0.03  0.01  0.00  0.96  0.00  0.00  0.00  0.00  0.00
  WS02006252WS02006251    1.00   0.09  0.00  0.00  0.00  0.00  0.91  0.00  0.00  0.00
  WS02006251WS02006249    1.00   0.00  0.00  0.00  1.00  0.00  0.00  0.00  0.55  0.00
  WS02006249WS02006248    1.00   0.00  0.02  0.00  0.64  0.00  0.34  0.00  0.00  0.00
  WS02006248WS02006247    1.00   0.02  0.00  0.00  0.97  0.00  0.00  0.01  0.45  0.00
  WS02006247WS02006245    1.00   0.02  0.00  0.00  0.96  0.00  0.00  0.02  0.00  0.00
  WS02006245WS02006243    1.00   0.02  0.00  0.00  0.93  0.00  0.00  0.05  0.01  0.00
  WS02006243WS02006242    1.00   0.01  0.01  0.00  0.98  0.00  0.00  0.00  0.26  0.00
  WS02006242WS02006240    1.00   0.01  0.00  0.00  0.99  0.00  0.00  0.00  0.00  0.00
  WS02006240WS02006239    1.00   0.00  0.00  0.00  0.95  0.00  0.00  0.05  0.02  0.00
  WS02006239WS02006238    1.00   0.00  0.00  0.00  1.00  0.00  0.00  0.00  0.00  0.00
  WS02006238WS02006235    1.00   0.00  0.00  0.00  1.00  0.00  0.00  0.00  0.00  0.00
  WS02006235WS02006234    1.00   0.00  0.00  0.00  0.94  0.00  0.06  0.00  0.00  0.00
  WS02006234WS02006232    1.00   0.00  0.00  0.00  1.00  0.00  0.00  0.00  0.00  0.00
  WS02006232WS02006231    1.00   0.00  0.00  0.00  0.99  0.00  0.01  0.00  0.00  0.00
  WS02006231WS02006230    1.00   0.01  0.00  0.00  0.48  0.00  0.52  0.00  0.00  0.00
  WS02006230WS02006229    1.00   0.00  0.00  0.00  0.98  0.00  0.00  0.02  0.01  0.00
  WS02006228WS02006109    1.00   0.00  0.00  0.00  0.99  0.00  0.00  0.00  0.00  0.00
  WS02006116WS02004401    1.00   0.02  0.00  0.00  0.98  0.00  0.00  0.00  0.00  0.00
  WS02006115WS02006116    1.00   0.02  0.00  0.00  0.96  0.00  0.00  0.01  0.01  0.00
  WS02006113WS02006111    1.00   0.02  0.00  0.00  0.00  0.98  0.00  0.00  0.14  0.00
  WS02006112WS02006115    1.00   0.02  0.00  0.00  0.97  0.00  0.00  0.00  0.00  0.00
  WS02006111WS02006112    1.00   0.02  0.00  0.00  0.98  0.00  0.00  0.00  0.98  0.00
  WS02006110WS02006113    1.00   0.02  0.00  0.00  0.98  0.00  0.00  0.00  0.00  0.00
  WS02006109WS02006110    1.00   0.00  0.02  0.00  0.98  0.00  0.00  0.00  0.00  0.00
  WS02004411WS02004412    1.00   0.06  0.00  0.00  0.94  0.00  0.00  0.00  0.00  0.00
  WS02004401WS02004402    1.00   0.02  0.00  0.00  0.98  0.00  0.00  0.00  0.00  0.00
  WS02004413WS02003067    1.00   0.06  0.02  0.00  0.00  0.00  0.93  0.00  0.00  0.00
  WS02004412WS02004413    1.00   0.06  0.00  0.00  0.94  0.00  0.00  0.00  0.03  0.00
  WS02004410WS02004411    1.00   0.06  0.00  0.00  0.94  0.00  0.00  0.00  0.01  0.00
  WS02004409WS02004410    1.00   0.06  0.00  0.00  0.94  0.00  0.00  0.00  0.00  0.00
  WS02004407WS02004409    1.00   0.06  0.00  0.00  0.94  0.00  0.00  0.00  0.80  0.00
  WS02004406WS02004407    1.00   0.00  0.05  0.00  0.94  0.00  0.00  0.00  0.00  0.00
  WS02004405WS02004406    1.00   0.00  0.00  0.00  1.00  0.00  0.00  0.00  0.02  0.00
  WS02004404WS02004405    1.00   0.00  0.00  0.00  1.00  0.00  0.00  0.00  0.00  0.00
  WS02004403WS02004404    1.00   0.00  0.03  0.00  0.97  0.00  0.00  0.00  0.02  0.00
  WS02004402WS02004403    1.00   0.03  0.00  0.00  0.97  0.00  0.00  0.00  0.00  0.00
  WS02004139WS02001211    1.00   0.00  0.00  0.00  0.99  0.00  0.01  0.00  0.00  0.00
  WS02004138WS02004139    1.00   0.00  0.00  0.00  0.99  0.01  0.00  0.00  1.00  0.00
  WS02003067WS02003066    1.00   0.07  0.01  0.00  0.92  0.00  0.00  0.00  0.00  0.00
  WS02001213WS02003059    1.00   0.00  0.00  0.00  0.99  0.00  0.00  0.00  0.00  0.00
  WS02001212WS02001213    1.00   0.01  0.00  0.00  0.64  0.00  0.36  0.00  0.00  0.00
  WS02001211WS02001212    1.00   0.00  0.01  0.00  0.99  0.00  0.00  0.00  0.00  0.00
  WS02003072WS02003073    1.00   0.00  0.00  0.00  0.00  0.00  0.00  1.00  0.00  0.00
  WS02003069WS02003072    1.00   0.00  0.00  0.00  0.99  0.01  0.00  0.00  0.51  0.00
  WS02003060WS02003069    1.00   0.00  0.00  0.00  0.97  0.03  0.00  0.00  0.04  0.00
  WS02003059WS02003060    1.00   0.00  0.00  0.00  0.99  0.01  0.00  0.00  0.01  0.00
  HS02004901HS02004770    1.00   0.04  0.00  0.00  0.95  0.00  0.00  0.00  0.02  0.00
  HS02004876HS02004881    1.00   0.02  0.00  0.00  0.98  0.00  0.00  0.00  0.00  0.00
  HS02004870HS02004876    1.00   0.01  0.00  0.00  0.99  0.00  0.00  0.00  0.95  0.00
  HS02004842HS02004848    1.00   0.00  0.05  0.00  0.95  0.00  0.00  0.00  0.67  0.00
  HS02004837HS02004842    1.00   0.00  0.00  0.00  0.99  0.01  0.00  0.00  0.11  0.00
  HS02004830HS02004837    1.00   0.00  0.00  0.00  1.00  0.00  0.00  0.00  0.99  0.00
  HS02004824HS02004830    1.00   0.00  0.00  0.00  1.00  0.00  0.00  0.00  0.00  0.00
  HS02004817HS02004824    1.00   0.00  0.00  0.00  1.00  0.00  0.00  0.00  1.00  0.00
  HS02004770HS02004777    1.00   0.00  0.04  0.00  0.95  0.00  0.00  0.00  0.07  0.00
  HS02004799HS02004480    1.00   0.01  0.02  0.00  0.94  0.00  0.03  0.00  0.00  0.00
  HS02004792HS02004799    1.00   0.00  0.00  0.00  0.98  0.02  0.00  0.00  0.98  0.00
  HS02004788HS02004792    1.00   0.00  0.00  0.00  0.98  0.02  0.00  0.00  0.98  0.00
  HS02004785HS02004788    1.00   0.00  0.00  0.00  1.00  0.00  0.00  0.00  0.00  0.00
  HS02004777HS02004785    1.00   0.00  0.00  0.00  1.00  0.00  0.00  0.00  0.20  0.00
  HS02004480HS02004478    1.00   0.05  0.00  0.00  0.69  0.00  0.00  0.27  0.00  0.00
  HS02004479HS02004480    1.00   0.03  0.00  0.00  0.97  0.00  0.00  0.00  0.15  0.00
  HS02004862HS02004870    1.00   0.00  0.00  0.00  1.00  0.00  0.00  0.00  0.06  0.00
  HS02004848HS02004852    1.00   0.05  0.00  0.00  0.95  0.00  0.00  0.00  0.71  0.00
  HS02004856HS02004862    1.00   0.00  0.07  0.00  0.93  0.00  0.00  0.00  0.75  0.00
  HS02004852HS02004856    1.00   0.04  0.01  0.00  0.95  0.00  0.00  0.00  0.83  0.00
  HS02004802HS02004478    1.00   0.05  0.01  0.00  0.95  0.00  0.00  0.00  0.01  0.00
  HS02004478WS02006287    1.00   0.06  0.00  0.00  0.81  0.14  0.00  0.00  0.74  0.00
  HS02004817HS02004807    1.00   0.00  0.05  0.00  0.95  0.00  0.00  0.00  0.00  0.00
  HS02004807HS02004802    1.00   0.05  0.00  0.00  0.95  0.00  0.00  0.00  0.01  0.00
  YS02001759YS02001757    1.00   0.00  0.00  0.00  1.00  0.00  0.00  0.00  0.17  0.00
  YS02001762YS02001759    1.00   0.00  0.00  0.00  1.00  0.00  0.00  0.00  0.04  0.00
  YS02001765YS02001762    1.00   0.00  0.00  0.00  1.00  0.00  0.00  0.00  0.21  0.00
  YS02001770YS02001767    1.00   0.00  0.00  0.00  1.00  0.00  0.00  0.00  0.00  0.00
  YS02001774YS02001770    1.00   0.00  0.05  0.00  0.95  0.00  0.00  0.00  0.06  0.00
  YS02001779YS02001774    1.00   0.00  0.00  0.00  1.00  0.00  0.00  0.00  0.26  0.00
  YS02001649YS02001757    1.00   0.00  0.00  0.00  1.00  0.00  0.00  0.00  0.19  0.00
  YS02001767YS02001765    1.00   0.00  0.00  0.00  1.00  0.00  0.00  0.00  0.01  0.00
  YS02006561YS02001783    1.00   0.07  0.00  0.00  0.24  0.69  0.00  0.00  0.68  0.00
  YS02001783YS02001784    1.00   0.00  0.07  0.00  0.93  0.00  0.00  0.00  0.00  0.00
  YS02001784YS02001785    1.00   0.00  0.00  0.00  1.00  0.00  0.00  0.00  0.25  0.00
  YS02001788YS02001790    1.00   0.00  0.00  0.00  0.37  0.63  0.00  0.00  0.70  0.00
  YS02001790YS02001791    1.00   0.00  0.00  0.00  0.33  0.67  0.00  0.00  0.43  0.00
  YS02001791YS02001793    1.00   0.00  0.00  0.00  0.35  0.65  0.00  0.00  0.02  0.00
  YS02001910YS02001907    1.00   0.00  0.00  0.00  0.98  0.00  0.00  0.02  0.13  0.00
  YS02001786YS02001788    1.00   0.00  0.00  0.00  0.35  0.65  0.00  0.00  0.00  0.00
  YS02001915YS02001910    1.00   0.00  0.00  0.00  1.00  0.00  0.00  0.00  0.23  0.00
  YS02001918YS02001915    1.00   0.00  0.01  0.00  0.98  0.01  0.00  0.00  0.69  0.00
  YS02001923YS02001920    1.00   0.00  0.00  0.00  1.00  0.00  0.00  0.00  1.00  0.00
  YS02001926YS02001923    1.00   0.00  0.03  0.00  0.00  0.00  0.97  0.00  0.00  0.00
  YS02001929YS02001926    1.00   0.00  0.04  0.00  0.96  0.00  0.00  0.00  0.87  0.00
  YS02001920YS02001918    1.00   0.00  0.01  0.00  0.99  0.00  0.00  0.00  0.00  0.00
  YS02001629YS02163301    1.00   0.06  0.00  0.00  0.93  0.00  0.00  0.00  0.00  0.00
  YS02001619YS02001622    1.00   0.04  0.00  0.00  0.96  0.00  0.00  0.00  0.00  0.00
  YS02001622YS02001625    1.00   0.05  0.00  0.00  0.95  0.00  0.00  0.00  0.12  0.00
  YS02001625YS02001629    1.00   0.05  0.03  0.00  0.91  0.00  0.02  0.00  0.00  0.00
  YS02163301YS02001633    1.00   0.00  0.06  0.00  0.94  0.00  0.00  0.00  0.00  0.00
  YS02163601YS02164001    1.00   0.00  0.03  0.00  0.97  0.00  0.00  0.00  0.00  0.00
  YS02164001YS02001641    1.00   0.01  0.02  0.00  0.97  0.00  0.00  0.00  0.07  0.00
  YS02001641YS02001644    1.00   0.00  0.01  0.00  0.99  0.00  0.00  0.00  0.00  0.00
  YS02001647YS02001649    1.00   0.00  0.07  0.00  0.93  0.00  0.00  0.00  0.01  0.00
  YS02006553YS02006556    1.00   0.02  0.00  0.00  0.98  0.00  0.00  0.00  0.03  0.00
  YS02006556YS02006558    1.00   0.00  0.01  0.00  0.99  0.00  0.00  0.00  0.00  0.00
  YSB6556YSB1171          1.00   0.03  0.02  0.00  0.96  0.00  0.00  0.00  0.00  0.00
  YS02001907YS02006553    1.00   0.00  0.02  0.00  0.98  0.00  0.00  0.00  0.00  0.00
  YS02006558YS02006561    1.00   0.07  0.00  0.00  0.00  0.93  0.00  0.00  0.61  0.00
  YS02001633YS02163601    1.00   0.00  0.01  0.00  0.99  0.00  0.00  0.00  0.19  0.00
  YS02001644YS02001647    1.00   0.00  0.07  0.00  0.93  0.00  0.00  0.00  0.00  0.00
  YS02001745YS02001748    1.00   0.00  0.00  0.00  0.87  0.01  0.00  0.12  0.08  0.00
  YS02001748YS02001751    1.00   0.00  0.00  0.00  0.97  0.03  0.00  0.00  0.23  0.00
  YS02001751YS02001754    1.00   0.00  0.00  0.00  0.92  0.00  0.00  0.08  0.01  0.00
  YS02001754YS02001757    1.00   0.00  0.00  0.00  0.99  0.01  0.00  0.00  0.26  0.00
  YS02001882YS02001884    1.00   0.06  0.00  0.00  0.94  0.00  0.00  0.00  0.00  0.00
  YS02001884YS02001887    1.00   0.03  0.01  0.00  0.96  0.00  0.00  0.00  0.00  0.00
  YS02001890YS02001895    1.00   0.00  0.06  0.00  0.94  0.00  0.00  0.00  0.00  0.00
  YS02001895YS02001898    1.00   0.07  0.00  0.00  0.93  0.00  0.01  0.00  0.00  0.00
  YS02001898YS02001901    1.00   0.06  0.00  0.00  0.93  0.00  0.00  0.00  0.02  0.00
  YS02001901YS02001904    1.00   0.06  0.00  0.00  0.94  0.00  0.00  0.00  0.00  0.00
  YS02001904YS02001907    1.00   0.00  0.06  0.00  0.94  0.00  0.00  0.00  0.00  0.00
  YS02001887YS02001890    1.00   0.00  0.00  0.00  0.98  0.00  0.02  0.00  0.00  0.00
  YS02001652YS02001649    1.00   0.00  0.00  0.00  1.00  0.00  0.00  0.00  0.25  0.00
  YS02001655YS02001652    1.00   0.00  0.00  0.00  0.92  0.00  0.00  0.08  0.01  0.00
  YS02001658YS02001655    1.00   0.00  0.06  0.00  0.91  0.03  0.00  0.00  0.08  0.00
  YS02001661YS02001658    1.00   0.06  0.00  0.00  0.87  0.07  0.00  0.00  0.09  0.00
  YS02001664YS02001661    1.00   0.04  0.00  0.00  0.80  0.15  0.00  0.00  0.38  0.00
  YSB1154YSB6556          1.00   0.04  0.00  0.00  0.96  0.00  0.00  0.00  0.02  0.00
  YSB1174YSB1171          1.00   0.03  0.01  0.00  0.96  0.00  0.00  0.00  0.00  0.00
  YSB1171HS02004479       1.00   0.03  0.00  0.00  0.97  0.00  0.00  0.00  0.13  0.00
  HS02004881HS02006253    1.00   0.03  0.00  0.00  0.60  0.01  0.00  0.37  0.40  0.00
  YS02001793JiankangQianchi    1.00   0.00  0.00  0.00  0.51  0.48  0.00  0.00  0.12  0.00
  YS02001757CaochengTiaoxuchi    1.00   0.00  0.09  0.00  0.91  0.00  0.00  0.00  0.00  0.00
  WSF200WS02003060        1.00   0.00  0.08  0.00  0.81  0.11  0.00  0.00  0.28  0.00
  1                       1.00   0.00  0.00  0.00  0.00  1.00  0.00  0.00  0.24  0.00
  2                       1.00   0.96  0.00  0.00  0.00  0.04  0.00  0.00  0.01  0.00
  3                       1.00   0.07  0.00  0.00  0.00  0.93  0.00  0.00  0.00  0.00
  4                       1.00   1.00  0.00  0.00  0.00  0.00  0.00  0.00  0.00  0.00
  
  
  *************************
  Conduit Surcharge Summary
  *************************
  
  ----------------------------------------------------------------------------
                                                           Hours        Hours 
                         --------- Hours Full --------   Above Full   Capacity
  Conduit                Both Ends  Upstream  Dnstream   Normal Flow   Limited
  ----------------------------------------------------------------------------
  WS02006229WS02006228        1.07      1.12      1.07      3.28         1.07
  WS02006256WS02006235        5.70      5.70      7.83      5.11         0.01
  WS02006249WS02006248        0.01      0.01      0.01      3.10         0.01
  WS02006247WS02006245        0.01      0.01      0.01      3.17         0.01
  WS02006243WS02006242        0.01      0.01      0.11      0.01         0.01
  WS02006242WS02006240        0.01      0.01      0.24      0.07         0.01
  WS02006240WS02006239        0.01      0.01      0.11      0.01         0.01
  WS02006239WS02006238        0.26      0.26      0.28      0.01         0.01
  WS02006238WS02006235        0.27      0.27      0.52      0.01         0.01
  WS02006235WS02006234        0.15      0.15      0.26      5.73         0.01
  WS02006234WS02006232        0.24      0.24      0.78      0.01         0.01
  WS02006232WS02006231        0.01      0.01      0.78      0.01         0.01
  WS02006231WS02006230        0.01      0.01      0.01      5.69         0.01
  WS02006230WS02006229        1.58      3.21      1.58      5.76         1.58
  WS02006228WS02006109        1.09      1.28      1.09      3.40         1.09
  WS02006112WS02006115        0.01      0.01      0.46      0.01         0.01
  WS02006111WS02006112        0.01      0.01      3.29      0.01         0.01
  WS02006110WS02006113        0.01      0.01      1.18      0.01         0.01
  WS02006109WS02006110        0.27      0.27      1.28      0.28         0.01
  WS02004405WS02004406        0.01      0.01      0.01      0.32         0.01
  WS02004404WS02004405        0.01      0.01      0.01      5.67         0.01
  WS02003072WS02003073        0.01      0.01      0.01      3.36         0.01
  YS02001759YS02001757        5.43      5.43      5.49      0.01         0.01
  YS02001762YS02001759        5.39      5.39      5.43      0.01         0.02
  YS02001765YS02001762        5.37      5.37      5.39      0.01         0.01
  YS02001770YS02001767        5.34      5.34      5.34      0.01         0.61
  YS02001774YS02001770        5.29      5.29      5.39      0.01         0.01
  YS02001779YS02001774        4.66      4.66      5.39      0.01         0.01
  YS02001649YS02001757        5.41      5.41      5.49      0.01         0.01
  YS02001767YS02001765        5.34      5.34      5.37      0.01         0.03
  YS02001784YS02001785        0.01      0.01      0.01      0.69         0.01
  YS02001788YS02001790        0.01      0.01      1.30      0.01         0.01
  YS02001790YS02001791        1.30      1.30      1.43      0.01         0.01
  YS02001791YS02001793        1.43      1.43      1.70      0.01         0.01
  YS02001629YS02163301        5.31      5.31      5.33      0.01         0.01
  YS02001619YS02001622        4.05      4.05      4.13      0.01         0.01
  YS02001622YS02001625        4.13      4.13      5.17      0.01         0.01
  YS02001625YS02001629        4.07      4.07      5.17      0.01         0.01
  YS02163301YS02001633        5.33      5.33      5.38      0.01         0.01
  YS02163601YS02164001        5.37      5.37      5.40      0.01         0.01
  YS02164001YS02001641        5.37      5.37      5.38      0.01         0.01
  YS02001641YS02001644        5.38      5.38      5.39      0.01         0.78
  YS02001647YS02001649        5.12      5.12      5.41      0.01         0.01
  YS02001907YS02006553        0.73      0.73      0.97      0.01         0.01
  YS02006558YS02006561        0.01      0.01      0.01      0.45         0.01
  YS02001633YS02163601        5.36      5.36      5.40      0.01         0.01
  YS02001644YS02001647        5.12      5.12      5.39      0.01         0.01
  YS02001745YS02001748        0.01      0.01      3.12      0.01         0.01
  YS02001748YS02001751        3.57      3.57      4.15      0.01         0.01
  YS02001751YS02001754        4.15      4.15      4.81      0.01         0.01
  YS02001754YS02001757        5.11      5.11      5.49      0.01         0.01
  YS02001652YS02001649        5.14      5.14      5.41      0.01         0.01
  YS02001655YS02001652        4.28      4.28      5.02      0.01         0.01
  YS02001658YS02001655        3.14      3.14      4.28      0.01         0.01
  YS02001661YS02001658        0.01      0.01      3.14      0.01         0.01
  YS02001664YS02001661        0.01      0.01      0.02      0.01         0.01
  YS02001793JiankangQianchi        1.64      1.64      2.52      0.01         0.01
  YS02001757CaochengTiaoxuchi        3.73      3.73      5.49      0.01         0.01
  3                           0.01      0.01      0.01      0.01         0.01
  
  
  ***************
  Pumping Summary
  ***************
  
  ---------------------------------------------------------------------------------------------------------
                                                  Min       Avg       Max     Total     Power    % Time Off
                        Percent   Number of      Flow      Flow      Flow    Volume     Usage    Pump Curve
  Pump                 Utilized   Start-Ups       LPS       LPS       LPS  10^6 ltr     Kw-hr    Low   High
  ---------------------------------------------------------------------------------------------------------
  CC-Pump-1               42.05           1      0.00    192.97    200.00     2.285      5.06    0.0   18.8
  CC-Pump-2                0.00           0      0.00      0.00      0.00     0.000      0.00    0.0    0.0
  JK-Pump-1               65.96           3      0.00    102.33    300.00     1.205     20.52    0.0    0.0
  JK-Pump-2               97.87           2      0.00    198.15    300.00     3.876     44.81    0.0    0.0
  XR-Pump-1               40.42           2      0.00     85.17     95.00     0.969      6.53    0.0    0.0
  XR-Pump-2               31.92           2      0.00     75.10     95.00     0.770     13.69    0.0    0.0
  XR-Pump-3               95.75           3      0.00     89.96     95.00     2.451     22.51    0.0    0.0
  XR-Pump-4               97.88           3      0.00     90.17     95.00     2.508     23.33    0.0    0.0
  

  Analysis begun on:  Tue Dec 21 16:46:07 2021
  Analysis ended on:  Tue Dec 21 16:46:10 2021
  Total elapsed time: 00:00:03