
  EPA STORM WATER MANAGEMENT MODEL - VERSION 5.1 (Build 5.3.0.dev0)
  --------------------------------------------------------------

  WARNING 04: minimum elevation drop used for Conduit WS02004404WS02004405
  WARNING 03: negative offset ignored for Link YS02001904YS02001907
  
  *********************************************************
  NOTE: The summary statistics displayed in this report are
  based on results found at every computational time step,  
  not just on results from each reporting time step.
  *********************************************************
  
  ****************
  Analysis Options
  ****************
  Flow Units ............... LPS
  Process Models:
    Rainfall/Runoff ........ YES
    RDII ................... NO
    Snowmelt ............... NO
    Groundwater ............ NO
    Flow Routing ........... YES
    Ponding Allowed ........ NO
    Water Quality .......... NO
  Infiltration Method ...... HORTON
  Flow Routing Method ...... DYNWAVE
  Surcharge Method ......... EXTRAN
  Starting Date ............ 08/28/2015 08:00:00
  Ending Date .............. 08/28/2015 15:50:00
  Antecedent Dry Days ...... 8.0
  Report Time Step ......... 00:01:00
  Wet Time Step ............ 00:01:00
  Dry Time Step ............ 00:01:00
  Routing Time Step ........ 5.00 sec
  Variable Time Step ....... YES
  Maximum Trials ........... 8
  Number of Threads ........ 4
  Head Tolerance ........... 0.001500 m
  
  
  **************************        Volume         Depth
  Runoff Quantity Continuity     hectare-m            mm
  **************************     ---------       -------
  Total Precipitation ......         2.730         5.977
  Evaporation Loss .........         0.000         0.000
  Infiltration Loss ........         0.686         1.502
  Surface Runoff ...........         1.157         2.533
  Final Storage ............         0.888         1.943
  Continuity Error (%) .....        -0.018
  
  
  **************************        Volume        Volume
  Flow Routing Continuity        hectare-m      10^6 ltr
  **************************     ---------     ---------
  Dry Weather Inflow .......         0.616         6.165
  Wet Weather Inflow .......         1.156        11.561
  Groundwater Inflow .......         0.000         0.000
  RDII Inflow ..............         0.000         0.000
  External Inflow ..........         0.102         1.024
  External Outflow .........         1.417        14.170
  Flooding Loss ............         0.050         0.498
  Evaporation Loss .........         0.000         0.000
  Exfiltration Loss ........         0.000         0.000
  Initial Stored Volume ....         0.076         0.761
  Final Stored Volume ......         0.598         5.976
  Continuity Error (%) .....        -5.815
  
  
  *************************
  Highest Continuity Errors
  *************************
  Node JK-storage (-33.02%)
  Node HS02004842 (28.20%)
  Node YS02001884 (22.63%)
  Node YS02001774 (18.02%)
  Node YSB1171 (6.87%)
  
  
  ***************************
  Time-Step Critical Elements
  ***************************
  Link WS02006252WS02006251 (47.83%)
  Link 3 (42.28%)
  Link YS02001793JiankangQianchi (2.44%)
  Link WS02006280WS02006229 (2.32%)
  
  
  ********************************
  Highest Flow Instability Indexes
  ********************************
  Link WS02006113WS02006111 (54)
  Link WS02006111WS02006112 (20)
  Link YS02006558YS02006561 (16)
  Link YS02164001YS02001641 (11)
  Link YS02001629YS02163301 (11)
  
  
  *************************
  Routing Time Step Summary
  *************************
  Minimum Time Step           :     0.47 sec
  Average Time Step           :     1.13 sec
  Maximum Time Step           :     5.00 sec
  Percent in Steady State     :    -0.00
  Average Iterations per Step :     3.10
  Percent Not Converging      :    11.55
  
  
  ***************************
  Subcatchment Runoff Summary
  ***************************
  
  ------------------------------------------------------------------------------------------------------------------------------
                            Total      Total      Total      Total     Imperv       Perv      Total       Total     Peak  Runoff
                           Precip      Runon       Evap      Infil     Runoff     Runoff     Runoff      Runoff   Runoff   Coeff
  Subcatchment                 mm         mm         mm         mm         mm         mm         mm    10^6 ltr      LPS
  ------------------------------------------------------------------------------------------------------------------------------
  sub0                       5.98       0.00       0.00       0.42       4.29       0.00       4.29        0.00     1.44   0.718
  sub1                       5.98       0.00       0.00       0.66       4.06       0.00       4.06        0.03     7.56   0.680
  sub2                       5.98       0.00       0.00       2.21       2.86       0.00       2.86        0.03     6.69   0.478
  sub3                       5.98       0.00       0.00       2.21       2.82       0.00       2.82        0.06    13.77   0.473
  sub4                       5.98       0.00       0.00       0.66       3.93       0.00       3.93        0.08    15.47   0.657
  sub5                       5.98       0.00       0.00       0.42       4.25       0.00       4.25        0.05    13.44   0.711
  sub7                       5.98       0.00       0.00       0.54       4.18       0.00       4.18        0.01     4.74   0.700
  sub8                       5.98       0.00       0.00       0.54       4.18       0.00       4.18        0.03     8.36   0.699
  sub9                       5.98       0.00       0.00       0.54       4.17       0.00       4.17        0.02     6.20   0.698
  sub10                      5.98       0.00       0.00       0.48       4.21       0.00       4.21        0.05    13.42   0.704
  sub11                      5.98       0.00       0.00       0.48       4.22       0.00       4.22        0.05    15.74   0.707
  sub12                      5.98       0.00       0.00       0.78       4.01       0.00       4.01        0.04    13.33   0.671
  sub14                      5.98       0.00       0.00       0.54       4.17       0.00       4.17        0.04    12.12   0.698
  sub15                      5.98       0.00       0.00       1.79       3.21       0.00       3.21        0.06    16.44   0.536
  sub16                      5.98       0.00       0.00       1.97       3.09       0.00       3.09        0.03    11.72   0.516
  sub17                      5.98       0.00       0.00       1.91       3.13       0.00       3.13        0.03     9.46   0.524
  sub22                      5.98       0.00       0.00       2.57       2.62       0.00       2.62        0.17    53.85   0.438
  sub23                      5.98       0.00       0.00       2.21       2.90       0.00       2.90        0.14    45.85   0.484
  sub60                      5.98       0.00       0.00       0.72       2.82       0.00       2.82        0.86    79.65   0.472
  sub61                      5.98       0.00       0.00       1.02       3.02       0.00       3.02        0.93    99.61   0.505
  sub62                      5.98       0.00       0.00       0.48       3.23       0.00       3.23        0.99   101.90   0.541
  sub63                      5.98       0.00       0.00       1.73       2.69       0.00       2.69        0.81    92.85   0.450
  sub64                      5.98       0.00       0.00       0.90       2.70       0.00       2.70        0.82    75.64   0.451
  sub65                      5.98       0.00       0.00       0.78       2.73       0.00       2.73        0.84    76.74   0.457
  sub66                      5.98       0.00       0.00       1.73       2.35       0.00       2.35        0.72    69.31   0.394
  sub67                      5.98       0.00       0.00       0.48       3.56       0.00       3.56        1.10   130.42   0.595
  sub68                      5.98       0.00       0.00       0.84       3.21       0.00       3.21        0.99   110.04   0.537
  sub69                      5.98       0.00       0.00       0.90       3.46       0.00       3.46        0.81   108.95   0.580
  sub70                      5.98       3.54       0.00       3.23       4.25       0.00       4.25        0.97    88.31   0.447
  sub71                      5.98       0.00       0.00       0.48       3.09       0.00       3.09        0.73    71.22   0.518
  sub72                      5.98       0.00       0.00       0.42       2.18       0.00       2.18        0.44    33.53   0.365
  sub73                      5.98       4.14       0.00       3.44       4.33       0.00       4.33        1.02    75.82   0.428
  sub74                      5.98       0.00       0.00       4.48       1.04       0.00       1.04        0.42    60.72   0.175
  
  
  ******************
  Node Depth Summary
  ******************
  
  ---------------------------------------------------------------------------------
                                 Average  Maximum  Maximum  Time of Max    Reported
                                   Depth    Depth      HGL   Occurrence   Max Depth
  Node                 Type       Meters   Meters   Meters  days hr:min      Meters
  ---------------------------------------------------------------------------------
  WS02001211           JUNCTION     0.64     0.71     5.55     0  03:21        0.71
  WS02001212           JUNCTION     0.36     0.43     5.49     0  03:20        0.43
  WS02001213           JUNCTION     0.58     0.67     5.43     0  03:18        0.67
  WS02003069           JUNCTION     0.40     0.51     5.09     0  02:37        0.51
  WS02003072           JUNCTION     0.46     0.57     4.94     0  02:38        0.57
  WS02003073           JUNCTION     0.28     0.35     4.41     0  02:38        0.35
  WS02003060           JUNCTION     0.36     0.45     5.38     0  02:37        0.45
  WS02003066           JUNCTION     0.21     0.29     5.84     0  02:40        0.29
  WS02003059           JUNCTION     0.64     0.73     5.42     0  03:18        0.73
  WS02003067           JUNCTION     0.52     0.68     6.00     0  02:39        0.68
  WS02004401           JUNCTION     0.61     0.82     6.82     0  02:36        0.82
  WS02004402           JUNCTION     0.64     0.84     6.80     0  02:36        0.84
  WS02004403           JUNCTION     0.67     0.86     6.79     0  02:36        0.86
  WS02004404           JUNCTION     0.74     0.93     6.78     0  02:36        0.93
  WS02004406           JUNCTION     0.75     0.93     6.76     0  02:37        0.93
  WS02004409           JUNCTION     0.43     0.63     6.40     0  02:39        0.63
  WS02004410           JUNCTION     0.45     0.65     6.37     0  02:39        0.65
  WS02004411           JUNCTION     0.47     0.66     6.34     0  02:39        0.66
  WS02004412           JUNCTION     0.49     0.67     6.31     0  02:39        0.67
  WS02004413           JUNCTION     0.64     0.83     6.30     0  02:40        0.83
  WS02004405           JUNCTION     0.74     0.93     6.78     0  02:36        0.93
  WS02006109           JUNCTION     0.68     0.92     7.54     0  02:32        0.92
  WS02006110           JUNCTION     0.68     0.89     7.47     0  02:32        0.89
  WS02006111           JUNCTION     0.19     0.27     6.98     0  02:33        0.27
  WS02006112           JUNCTION     0.77     1.01     6.89     0  02:35        1.00
  WS02006113           JUNCTION     0.30     0.43     7.33     0  02:33        0.43
  WS02006115           JUNCTION     0.50     0.71     6.85     0  02:36        0.71
  WS02006116           JUNCTION     0.58     0.79     6.83     0  02:36        0.79
  WS02006230           JUNCTION     0.62     0.94     7.68     0  02:32        0.94
  WS02006231           JUNCTION     0.40     0.61     7.73     0  02:33        0.61
  WS02006232           JUNCTION     0.53     0.73     7.77     0  02:33        0.73
  WS02006234           JUNCTION     0.44     0.65     7.81     0  02:34        0.65
  WS02006235           JUNCTION     0.47     0.68     7.84     0  02:34        0.68
  WS02006238           JUNCTION     0.49     0.70     7.85     0  02:34        0.70
  WS02006240           JUNCTION     0.37     0.59     7.89     0  02:35        0.59
  WS02006242           JUNCTION     0.41     0.65     7.92     0  02:35        0.65
  WS02006243           JUNCTION     0.28     0.52     7.94     0  02:35        0.52
  WS02006245           JUNCTION     0.25     0.49     7.97     0  02:36        0.49
  WS02006247           JUNCTION     0.26     0.50     8.00     0  02:36        0.50
  WS02006248           JUNCTION     0.21     0.43     8.02     0  02:36        0.43
  WS02006249           JUNCTION     0.25     0.46     8.06     0  02:36        0.46
  WS02006239           JUNCTION     0.44     0.66     7.87     0  02:34        0.66
  WS02006251           JUNCTION     0.23     0.44     8.11     0  02:36        0.44
  WS02006252           JUNCTION     0.21     0.35     8.59     0  02:22        0.35
  WS02006253           JUNCTION     0.26     0.47     8.11     0  02:36        0.47
  WS02006256           JUNCTION     1.02     2.35     9.28     0  00:00        1.19
  WS02004138           JUNCTION     0.15     0.17     7.42     0  00:00        0.17
  WS02004407           JUNCTION     0.20     0.28     6.60     0  02:37        0.28
  WS02006228           JUNCTION     0.67     0.95     7.60     0  02:32        0.95
  WS02006229           JUNCTION     0.64     0.94     7.63     0  02:32        0.94
  WS02006280           JUNCTION     0.06     0.15     8.42     0  02:18        0.15
  WS02006284           JUNCTION     0.35     0.48     8.88     0  02:18        0.48
  WS02006287           JUNCTION     0.08     0.21     9.17     0  02:18        0.21
  WSF200               JUNCTION     0.19     0.30     5.53     0  02:38        0.30
  HS02004901           JUNCTION     0.11     0.23    10.05     0  02:16        0.23
  HS02004881           JUNCTION     0.01     0.02     9.05     0  02:18        0.02
  HS02004876           JUNCTION     0.04     0.10     9.13     0  02:16        0.10
  HS02004870           JUNCTION     0.01     0.04     9.33     0  02:18        0.04
  HS02004862           JUNCTION     0.01     0.05     9.43     0  02:19        0.05
  HS02004856           JUNCTION     0.07     0.10     9.53     0  02:18        0.10
  HS02004852           JUNCTION     0.01     0.03     9.54     0  02:20        0.03
  HS02004848           JUNCTION     0.01     0.03     9.63     0  02:18        0.03
  HS02004842           JUNCTION     0.33     0.36     9.63     0  02:18        0.36
  HS02004837           JUNCTION     0.03     0.05     9.63     0  02:18        0.05
  HS02004830           JUNCTION     0.04     0.06     9.53     0  02:18        0.06
  HS02004824           JUNCTION     0.02     0.04     9.44     0  02:21        0.04
  HS02004817           JUNCTION     0.42     0.53     9.37     0  02:19        0.53
  HS02004807           JUNCTION     0.11     0.20     9.37     0  02:19        0.20
  HS02004802           JUNCTION     0.15     0.24     9.37     0  02:18        0.24
  HS02004799           JUNCTION     0.11     0.26     9.47     0  02:16        0.26
  HS02004792           JUNCTION     0.03     0.10     9.62     0  02:16        0.10
  HS02004788           JUNCTION     0.02     0.07     9.97     0  02:17        0.07
  HS02004785           JUNCTION     0.04     0.14    10.04     0  02:16        0.14
  HS02004777           JUNCTION     0.14     0.25    10.05     0  02:16        0.25
  HS02004770           JUNCTION     0.11     0.22    10.05     0  02:16        0.22
  HS02004480           JUNCTION     0.07     0.20     9.44     0  02:17        0.20
  HS02004479           JUNCTION     0.10     0.24     9.44     0  02:17        0.24
  HS02004478           JUNCTION     0.05     0.13     9.36     0  02:18        0.13
  YS02001745           JUNCTION     0.21     0.72     8.23     0  07:49        0.72
  YS02001748           JUNCTION     0.54     1.16     8.23     0  07:49        1.16
  YS02001751           JUNCTION     0.72     1.35     8.23     0  07:50        1.35
  YS02001754           JUNCTION     0.96     1.62     8.23     0  07:50        1.62
  YS02001762           JUNCTION     1.16     1.83     8.23     0  07:50        1.83
  YS02001765           JUNCTION     1.11     1.78     8.23     0  07:50        1.78
  YS02001767           JUNCTION     1.08     1.74     8.23     0  07:50        1.74
  YS02001770           JUNCTION     1.07     1.74     8.23     0  07:50        1.74
  YS02001774           JUNCTION     1.14     1.81     8.23     0  07:50        1.81
  YS02001779           JUNCTION     0.89     1.55     8.23     0  07:50        1.55
  YS02001882           JUNCTION     0.30     0.47     7.18     0  02:54        0.47
  YS02001884           JUNCTION     0.39     0.56     7.18     0  02:54        0.56
  YS02001759           JUNCTION     1.19     1.87     8.23     0  07:50        1.87
  YS02001887           JUNCTION     0.47     0.64     7.18     0  02:54        0.64
  YS02001890           JUNCTION     0.50     0.67     7.18     0  02:55        0.67
  YS02001898           JUNCTION     0.27     0.43     7.16     0  02:56        0.43
  YS02001901           JUNCTION     0.39     0.55     7.16     0  02:56        0.55
  YS02001904           JUNCTION     0.37     0.53     7.16     0  02:56        0.53
  YS02001907           JUNCTION     0.70     0.87     7.16     0  02:55        0.87
  YS02001910           JUNCTION     0.49     0.66     7.16     0  02:54        0.66
  YS02001915           JUNCTION     0.29     0.44     7.16     0  02:55        0.44
  YS02001918           JUNCTION     0.08     0.10     7.16     0  03:03        0.10
  YS02001619           JUNCTION     0.68     1.30     8.23     0  07:49        1.30
  YS02001629           JUNCTION     1.02     1.68     8.23     0  07:49        1.68
  YS02001641           JUNCTION     1.13     1.80     8.23     0  07:49        1.80
  YS02001644           JUNCTION     1.13     1.80     8.23     0  07:49        1.80
  YS02001652           JUNCTION     0.98     1.64     8.23     0  07:50        1.64
  YS02001655           JUNCTION     0.75     1.38     8.23     0  07:50        1.38
  YS02001920           JUNCTION     0.18     0.21     7.22     0  03:02        0.21
  YS02001923           JUNCTION     0.07     0.09     7.35     0  03:02        0.09
  YS02001926           JUNCTION     0.14     0.18     7.62     0  03:01        0.18
  YS02001929           JUNCTION     0.07     0.09     7.78     0  03:01        0.09
  YS02001658           JUNCTION     0.49     1.09     8.23     0  07:50        1.09
  YS02001661           JUNCTION     0.30     0.83     8.23     0  07:50        0.83
  YS02001664           JUNCTION     0.09     0.31     8.23     0  07:50        0.31
  YS02001622           JUNCTION     0.70     1.33     8.23     0  07:49        1.33
  YS02001633           JUNCTION     1.11     1.78     8.23     0  07:49        1.78
  YS02001649           JUNCTION     1.17     1.84     8.23     0  07:50        1.84
  YS02001757           JUNCTION     1.29     1.97     8.23     0  07:50        1.97
  YS02001895           JUNCTION     0.27     0.43     7.17     0  02:55        0.43
  YS02001625           JUNCTION     0.98     1.63     8.23     0  07:49        1.63
  YS02163301           JUNCTION     1.05     1.72     8.23     0  07:49        1.72
  YS02163601           JUNCTION     1.17     1.84     8.23     0  07:49        1.84
  YS02164001           JUNCTION     1.11     1.78     8.23     0  07:49        1.77
  YS02001647           JUNCTION     0.96     1.62     8.23     0  07:50        1.62
  YSB1154              JUNCTION     0.24     0.39     9.44     0  02:17        0.39
  YSB6556              JUNCTION     0.14     0.27     9.44     0  02:17        0.27
  YSB1174              JUNCTION     0.20     0.33     9.44     0  02:17        0.33
  YSB1171              JUNCTION     0.39     0.54     9.44     0  02:16        0.54
  YS02006553           JUNCTION     0.70     0.88     7.16     0  02:55        0.88
  YS02006561           JUNCTION     0.15     0.23     6.89     0  02:55        0.23
  YS02006556           JUNCTION     0.67     0.85     7.16     0  02:55        0.85
  YS02006558           JUNCTION     0.72     0.89     7.16     0  02:55        0.89
  YS02001783           JUNCTION     0.28     0.61     6.75     0  02:57        0.60
  YS02001784           JUNCTION     0.32     0.66     6.73     0  02:58        0.65
  YS02001786           JUNCTION     0.29     0.68     6.71     0  02:58        0.66
  YS02001788           JUNCTION     0.24     0.70     6.68     0  02:58        0.70
  YS02001790           JUNCTION     0.33     1.57     7.22     0  02:54        1.01
  YS02001791           JUNCTION     0.32     1.50     6.97     0  02:53        1.15
  YS02001793           JUNCTION     0.44     2.51     7.34     0  02:50        1.77
  WS02004139           JUNCTION     0.58     0.65     5.56     0  03:21        0.65
  WSC                  OUTFALL      0.27     0.35     1.02     0  02:39        0.35
  3                    OUTFALL      0.08     0.23     6.23     0  00:00        0.19
  4                    OUTFALL      0.00     0.00     7.00     0  00:00        0.00
  5                    OUTFALL      0.00     0.00     5.00     0  00:00        0.00
  JK-storage           STORAGE      1.87     5.80     6.60     0  02:56        5.80
  CC-storage           STORAGE      0.54     1.23     8.23     0  07:50        1.23
  XR-storage           STORAGE      5.72     7.72     5.72     0  05:18        7.72
  
  
  *******************
  Node Inflow Summary
  *******************
  
  -------------------------------------------------------------------------------------------------
                                  Maximum  Maximum                  Lateral       Total        Flow
                                  Lateral    Total  Time of Max      Inflow      Inflow     Balance
                                   Inflow   Inflow   Occurrence      Volume      Volume       Error
  Node                 Type           LPS      LPS  days hr:min    10^6 ltr    10^6 ltr     Percent
  -------------------------------------------------------------------------------------------------
  WS02001211           JUNCTION      7.35   292.88     0  03:28       0.207        6.48       0.448
  WS02001212           JUNCTION      0.00   293.13     0  03:27           0        6.45       0.256
  WS02001213           JUNCTION      0.00   293.36     0  03:28           0        6.43       0.290
  WS02003069           JUNCTION      0.32   747.24     0  02:37     0.00902        12.1       0.168
  WS02003072           JUNCTION      0.00   747.17     0  02:38           0        12.1       0.224
  WS02003073           JUNCTION      1.82   748.99     0  02:38      0.0514        12.1       0.237
  WS02003060           JUNCTION     16.53   746.87     0  02:36       0.466        12.1       0.163
  WS02003066           JUNCTION      0.00   491.29     0  02:40           0        5.24       0.057
  WS02003059           JUNCTION      0.00   293.80     0  03:28           0        6.42       0.471
  WS02003067           JUNCTION      0.00   491.27     0  02:40           0        5.25       0.130
  WS02004401           JUNCTION      0.00   494.53     0  02:35           0        5.42       0.294
  WS02004402           JUNCTION      0.00   494.04     0  02:35           0         5.4       0.287
  WS02004403           JUNCTION      0.00   493.92     0  02:36           0        5.39       0.268
  WS02004404           JUNCTION      0.16   493.97     0  02:36     0.00457        5.38       0.209
  WS02004406           JUNCTION      0.00   494.03     0  02:37           0        5.35       0.514
  WS02004409           JUNCTION      0.00   493.92     0  02:37           0        5.32       0.182
  WS02004410           JUNCTION      0.00   492.89     0  02:37           0        5.31       0.219
  WS02004411           JUNCTION      0.00   492.07     0  02:38           0         5.3       0.235
  WS02004412           JUNCTION      0.00   491.60     0  02:39           0        5.28       0.270
  WS02004413           JUNCTION      0.00   491.33     0  02:39           0        5.27       0.424
  WS02004405           JUNCTION      0.04   494.01     0  02:36     0.00107        5.37       0.318
  WS02006109           JUNCTION      1.23   492.34     0  02:32      0.0347        5.48       0.323
  WS02006110           JUNCTION      0.00   492.34     0  02:32           0        5.46       0.268
  WS02006111           JUNCTION      0.00   509.19     0  02:33           0        5.44       0.047
  WS02006112           JUNCTION      9.46   500.19     0  02:33      0.0268        5.47       0.403
  WS02006113           JUNCTION      0.00   492.48     0  02:32           0        5.45       0.107
  WS02006115           JUNCTION      0.00   497.32     0  02:33           0        5.44       0.247
  WS02006116           JUNCTION      0.00   495.49     0  02:34           0        5.43       0.249
  WS02006230           JUNCTION     10.28   329.89     0  03:12        0.29        4.56       0.271
  WS02006231           JUNCTION      0.00   318.98     0  03:12           0        4.27       0.066
  WS02006232           JUNCTION      0.00   318.68     0  03:11           0        4.28       0.274
  WS02006234           JUNCTION      0.00   318.31     0  03:11           0        4.29       0.070
  WS02006235           JUNCTION      0.00   318.12     0  03:11           0        4.32       0.184
  WS02006238           JUNCTION      0.00   266.36     0  02:40           0        1.93       0.223
  WS02006240           JUNCTION      0.00   253.07     0  02:41           0        1.91       0.229
  WS02006242           JUNCTION      0.00   246.84     0  02:41           0        1.91       0.261
  WS02006243           JUNCTION      0.00   240.07     0  02:41           0         1.9      -0.168
  WS02006245           JUNCTION      0.00   236.57     0  02:41           0         1.9       0.120
  WS02006247           JUNCTION      0.00   234.61     0  02:27           0         1.9      -0.007
  WS02006248           JUNCTION      0.00   235.82     0  02:26           0         1.9      -0.076
  WS02006249           JUNCTION      0.00   237.15     0  02:25           0         1.9       0.131
  WS02006239           JUNCTION      0.00   260.14     0  02:40           0        1.92       0.281
  WS02006251           JUNCTION      0.08   238.69     0  02:24     0.00217         1.9      -0.011
  WS02006252           JUNCTION      0.00   200.00     0  02:22           0        1.75       0.007
  WS02006253           JUNCTION      1.44    42.02     0  02:17     0.00347       0.155      -0.182
  WS02006256           JUNCTION      0.00   600.00     0  00:00           0        4.54       0.047
  WS02004138           JUNCTION      0.00   285.00     0  00:00           0         6.3       0.068
  WS02004407           JUNCTION      0.00   493.96     0  02:37           0        5.32       0.085
  WS02006228           JUNCTION      0.00   491.11     0  02:32           0        5.46       0.216
  WS02006229           JUNCTION      0.00   491.10     0  02:32           0        5.47       0.168
  WS02006280           JUNCTION      0.00   215.19     0  02:18           0        0.92       0.008
  WS02006284           JUNCTION      0.10   215.18     0  02:18      0.0027       0.921       0.116
  WS02006287           JUNCTION      0.00   215.07     0  02:18           0       0.919       0.079
  WSF200               JUNCTION      0.00   491.31     0  02:40           0        5.24       0.044
  HS02004901           JUNCTION     11.72    11.72     0  02:10      0.0323      0.0324       5.728
  HS02004881           JUNCTION      4.74    40.91     0  02:17      0.0141       0.148       0.208
  HS02004876           JUNCTION      7.56    36.49     0  02:18       0.027       0.135       0.393
  HS02004870           JUNCTION      8.36    29.08     0  02:18      0.0267       0.108       0.099
  HS02004862           JUNCTION      6.89    21.26     0  02:18      0.0323      0.0813       0.208
  HS02004856           JUNCTION      6.20    14.42     0  02:18      0.0201      0.0505       2.934
  HS02004852           JUNCTION      0.00     8.60     0  02:18           0      0.0305       0.167
  HS02004848           JUNCTION     13.77    13.77     0  02:21      0.0636      0.0636       0.069
  HS02004842           JUNCTION      0.00     5.64     0  02:31           0      0.0461      39.268
  HS02004837           JUNCTION     19.77    24.54     0  02:17       0.225       0.259       0.316
  HS02004830           JUNCTION      0.15    24.67     0  02:18     0.00423       0.249       0.497
  HS02004824           JUNCTION     15.52    40.00     0  02:21      0.0833       0.331       0.163
  HS02004817           JUNCTION      0.60    40.59     0  02:21      0.0169       0.347       5.040
  HS02004807           JUNCTION     15.74    54.93     0  02:19       0.049        0.38       1.125
  HS02004802           JUNCTION      0.00    55.25     0  02:21           0       0.375       1.093
  HS02004799           JUNCTION     12.12   136.57     0  02:15      0.0397       0.479       0.476
  HS02004792           JUNCTION     54.13   124.69     0  02:15       0.173        0.44       0.093
  HS02004788           JUNCTION     18.11    72.61     0  02:16       0.102       0.268       0.145
  HS02004785           JUNCTION      0.15    54.86     0  02:15     0.00423       0.168       0.289
  HS02004777           JUNCTION      0.03    55.18     0  02:14    0.000846       0.168       3.182
  HS02004770           JUNCTION     45.85    56.32     0  02:12       0.138       0.169       1.870
  HS02004480           JUNCTION      0.00   161.05     0  02:16           0       0.559       0.130
  HS02004479           JUNCTION      0.00    24.97     0  02:18           0      0.0926       0.794
  HS02004478           JUNCTION      0.00   215.06     0  02:18           0        0.92       0.068
  YS02001745           JUNCTION     79.65   150.13     0  05:25       0.855        0.93       1.104
  YS02001748           JUNCTION      0.04   174.30     0  05:11     0.00127       0.953       2.506
  YS02001751           JUNCTION      0.01   162.46     0  03:59     0.00031       0.858       2.827
  YS02001754           JUNCTION      0.26   117.57     0  04:00     0.00733       0.814       3.116
  YS02001762           JUNCTION      0.00   114.12     0  02:40           0       0.926       2.335
  YS02001765           JUNCTION      0.00   120.59     0  02:37           0       0.928       2.642
  YS02001767           JUNCTION      0.54   124.66     0  02:56      0.0151       0.948       3.774
  YS02001770           JUNCTION    102.05   129.29     0  02:55       0.998        1.05       2.992
  YS02001774           JUNCTION      0.00    59.36     0  04:39           0        0.14      21.981
  YS02001779           JUNCTION      0.01    59.07     0  04:39    0.000141      0.0642      30.093
  YS02001882           JUNCTION      0.00     4.20     0  02:10           0     0.00544      45.188
  YS02001884           JUNCTION      0.00    11.85     0  02:07           0      0.0217      29.245
  YS02001759           JUNCTION     99.65   212.94     0  02:52       0.931        1.82       1.270
  YS02001887           JUNCTION    130.87   130.87     0  02:44        1.11        1.12       0.647
  YS02001890           JUNCTION      0.00   130.48     0  02:43           0         1.1       0.724
  YS02001898           JUNCTION      0.00   129.76     0  02:47           0        1.08       0.206
  YS02001901           JUNCTION      0.00   129.60     0  02:48           0        1.08       0.515
  YS02001904           JUNCTION      0.00   128.94     0  02:48           0        1.08       0.479
  YS02001907           JUNCTION      0.00   235.33     0  02:55           0        2.32       0.962
  YS02001910           JUNCTION      0.00   107.87     0  03:01           0        1.25       0.824
  YS02001915           JUNCTION     71.24   107.34     0  03:01       0.731        1.25       0.368
  YS02001918           JUNCTION      0.00    36.38     0  03:02           0       0.523       0.220
  YS02001619           JUNCTION     69.31    69.31     0  03:01       0.721       0.724       1.711
  YS02001629           JUNCTION      0.00   114.03     0  05:03           0       0.676       4.515
  YS02001641           JUNCTION      0.00   155.37     0  02:54           0        1.38       1.550
  YS02001644           JUNCTION     75.68   229.67     0  03:02        0.82        2.17       1.221
  YS02001652           JUNCTION      0.00   114.55     0  02:53           0       0.755       3.130
  YS02001655           JUNCTION      0.15   145.30     0  03:33     0.00434       0.798       3.216
  YS02001920           JUNCTION      2.87    36.40     0  03:02      0.0809       0.525       0.394
  YS02001923           JUNCTION      0.04    33.53     0  03:01     0.00106       0.445       0.069
  YS02001926           JUNCTION      0.05    33.57     0  03:01     0.00147       0.446       0.494
  YS02001929           JUNCTION     33.53    33.53     0  03:01       0.445       0.445       0.068
  YS02001658           JUNCTION      0.00   147.34     0  05:16           0       0.911       2.646
  YS02001661           JUNCTION      0.00   123.27     0  05:08           0        0.91       2.166
  YS02001664           JUNCTION     92.85    92.85     0  02:46       0.813       0.816       0.429
  YS02001622           JUNCTION      0.00    84.17     0  02:55           0       0.747       4.425
  YS02001633           JUNCTION     76.94   156.60     0  03:03       0.844        1.44       2.231
  YS02001649           JUNCTION      0.00   322.59     0  02:56           0        2.83       1.337
  YS02001757           JUNCTION      0.00   580.20     0  02:56           0        5.34       1.760
  YS02001895           JUNCTION      0.00   129.84     0  02:46           0        1.09       0.347
  YS02001625           JUNCTION      0.00   115.56     0  05:02           0       0.747       5.448
  YS02163301           JUNCTION      0.00    95.41     0  03:03           0       0.622       3.997
  YS02163601           JUNCTION      0.11   154.78     0  02:54      0.0031         1.4       2.179
  YS02164001           JUNCTION      0.00   154.33     0  02:54           0        1.38       1.454
  YS02001647           JUNCTION      0.00   234.90     0  02:54           0        2.13       1.343
  YSB1154              JUNCTION     13.44    13.44     0  02:15      0.0481      0.0494       3.008
  YSB6556              JUNCTION      0.00    13.43     0  02:17           0      0.0504       2.533
  YSB1174              JUNCTION     13.33    13.33     0  02:09       0.035      0.0361       3.690
  YSB1171              JUNCTION      0.00    24.92     0  02:16           0      0.0921       7.372
  YS02006553           JUNCTION      0.00   235.32     0  03:02           0        2.31       0.624
  YS02006561           JUNCTION      0.00   352.99     0  02:54           0        3.27       0.020
  YS02006556           JUNCTION      0.00   235.68     0  03:02           0        2.31       0.450
  YS02006558           JUNCTION    110.92   345.82     0  02:55        1.01         3.3       0.138
  YS02001783           JUNCTION      0.00   349.84     0  02:55           0        3.27       0.048
  YS02001784           JUNCTION      1.06   373.16     0  02:58      0.0299         3.3       0.078
  YS02001786           JUNCTION      0.06   364.91     0  02:59     0.00159         3.3       0.076
  YS02001788           JUNCTION      0.07   377.55     0  02:59       0.002         3.3       0.043
  YS02001790           JUNCTION      0.15   368.51     0  02:58     0.00437         3.3       0.048
  YS02001791           JUNCTION      0.00   368.70     0  02:58           0         3.3       0.023
  YS02001793           JUNCTION      0.00   412.87     0  02:49           0         3.3       0.001
  WS02004139           JUNCTION      0.32   290.33     0  00:00     0.00905         6.3       0.519
  WSC                  OUTFALL       0.00   748.98     0  02:39           0          12       0.000
  3                    OUTFALL       0.00   597.65     0  00:00           0        2.12       0.000
  4                    OUTFALL       0.00     0.00     0  00:00           0           0       0.000 ltr
  5                    OUTFALL       0.00     0.00     0  00:00           0           0       0.000 ltr
  JK-storage           STORAGE       0.00   604.60     0  02:50           0        3.45     -24.825
  CC-storage           STORAGE       0.00   580.54     0  02:58           0        5.24       1.190
  XR-storage           STORAGE     328.89   328.89     0  02:57        7.07        7.67      -0.000
  
  
  **********************
  Node Surcharge Summary
  **********************
  
  Surcharging occurs when water rises above the top of the highest conduit.
  ---------------------------------------------------------------------
                                               Max. Height   Min. Depth
                                   Hours       Above Crown    Below Rim
  Node                 Type      Surcharged         Meters       Meters
  ---------------------------------------------------------------------
  WS02006109           JUNCTION        0.73          0.099        1.721
  WS02006112           JUNCTION        0.09          0.005        1.675
  WS02006232           JUNCTION        0.19          0.033        1.447
  WS02006256           JUNCTION        0.01          1.050        0.000
  WS02006228           JUNCTION        0.69          0.116        2.084
  YS02001748           JUNCTION        0.60          0.075        1.115
  YS02001751           JUNCTION        2.16          0.354        0.846
  YS02001754           JUNCTION        3.15          0.575        0.575
  YS02001762           JUNCTION        5.15          0.833        0.317
  YS02001765           JUNCTION        5.04          0.783        0.317
  YS02001767           JUNCTION        4.64          0.745        0.285
  YS02001770           JUNCTION        4.14          0.709        0.211
  YS02001774           JUNCTION        5.11          0.812        0.238
  YS02001779           JUNCTION        3.06          0.548        0.132
  YS02001759           JUNCTION        5.21          0.869        0.341
  YS02001619           JUNCTION        1.93          0.304        0.306
  YS02001629           JUNCTION        1.92          0.304        0.166
  YS02001641           JUNCTION        5.09          0.796        0.304
  YS02001644           JUNCTION        5.10          0.801        0.119
  YS02001652           JUNCTION        3.35          0.607        0.523
  YS02001655           JUNCTION        2.28          0.383        0.817
  YS02001658           JUNCTION        0.71          0.090        1.210
  YS02001622           JUNCTION        2.04          0.329        0.291
  YS02001633           JUNCTION        4.98          0.759        0.301
  YS02001649           JUNCTION        5.17          0.843        0.207
  YS02001757           JUNCTION        5.34          0.972        0.238
  YS02001625           JUNCTION        3.60          0.629        0.151
  YS02163301           JUNCTION        4.25          0.716        0.314
  YS02163601           JUNCTION        5.17          0.835        0.245
  YS02164001           JUNCTION        5.03          0.775        0.325
  YS02001647           JUNCTION        3.50          0.623        0.277
  YS02001790           JUNCTION        0.70          0.771        0.386
  YS02001791           JUNCTION        0.84          0.696        1.224
  YS02001793           JUNCTION        1.05          1.506        1.094
  
  
  *********************
  Node Flooding Summary
  *********************
  
  Flooding refers to all water that overflows a node, whether it ponds or not.
  --------------------------------------------------------------------------
                                                             Total   Maximum
                                 Maximum   Time of Max       Flood    Ponded
                        Hours       Rate    Occurrence      Volume     Depth
  Node                 Flooded       LPS   days hr:min    10^6 ltr    Meters
  --------------------------------------------------------------------------
  WS02006256              0.01    406.11      0  00:00       0.001     0.000
  JK-storage              0.38    104.48      0  02:58       0.049     0.000
  XR-storage              2.52     77.50      0  05:18       0.449     0.000
  
  
  **********************
  Storage Volume Summary
  **********************
  
  --------------------------------------------------------------------------------------------------
                         Average     Avg  Evap Exfil       Maximum     Max    Time of Max    Maximum
                          Volume    Pcnt  Pcnt  Pcnt        Volume    Pcnt     Occurrence    Outflow
  Storage Unit           1000 m3    Full  Loss  Loss       1000 m3    Full    days hr:min        LPS
  --------------------------------------------------------------------------------------------------
  JK-storage               0.094      32     0     0         0.291     100       0  02:56     600.00
  CC-storage               1.502      10     0     0         3.436      22       0  07:50     200.00
  XR-storage               0.687      74     0     0         0.926     100       0  05:18     285.00
  
  
  ***********************
  Outfall Loading Summary
  ***********************
  
  -----------------------------------------------------------
                         Flow       Avg       Max       Total
                         Freq      Flow      Flow      Volume
  Outfall Node           Pcnt       LPS       LPS    10^6 ltr
  -----------------------------------------------------------
  WSC                   99.99    498.84    748.98      12.050
  3                     85.35    139.35    597.65       2.120
  4                      0.00      0.00      0.00       0.000
  5                      0.00      0.00      0.00       0.000
  -----------------------------------------------------------
  System                46.34    638.19    995.00      14.170
  
  
  ********************
  Link Flow Summary
  ********************
  
  -----------------------------------------------------------------------------
                                 Maximum  Time of Max   Maximum    Max/    Max/
                                  |Flow|   Occurrence   |Veloc|    Full    Full
  Link                 Type          LPS  days hr:min     m/sec    Flow   Depth
  -----------------------------------------------------------------------------
  WS02003066WSF200     CONDUIT    491.31     0  02:40      2.67    0.08    0.22
  WS02006287WS02006284 CONDUIT    215.08     0  02:18      1.65    0.10    0.22
  WS02006284WS02006280 CONDUIT    215.19     0  02:18      1.89    0.09    0.20
  WS02006280WS02006229 CONDUIT    215.19     0  02:18      3.04    0.05    0.15
  WS02006229WS02006228 CONDUIT    491.11     0  02:32      0.98    1.63    1.00
  WS02006256WS02006235 CONDUIT    177.52     0  00:01      2.73    1.88    1.00
  WS02006253WS02006251 CONDUIT     42.17     0  02:17      0.50    0.13    0.65
  WS02006252WS02006251 CONDUIT    200.32     0  02:22      1.97    0.74    0.76
  WS02006251WS02006249 CONDUIT    237.15     0  02:25      0.97    0.68    0.65
  WS02006249WS02006248 CONDUIT    235.82     0  02:26      1.05    1.29    0.63
  WS02006248WS02006247 CONDUIT    234.61     0  02:27      1.02    0.51    0.66
  WS02006247WS02006245 CONDUIT    236.57     0  02:41      0.98    1.88    0.70
  WS02006245WS02006243 CONDUIT    240.07     0  02:41      1.03    0.71    0.71
  WS02006243WS02006242 CONDUIT    246.84     0  02:41      0.84    0.53    0.81
  WS02006242WS02006240 CONDUIT    253.07     0  02:41      0.79    1.01    0.88
  WS02006240WS02006239 CONDUIT    260.14     0  02:40      0.84    0.82    0.86
  WS02006239WS02006238 CONDUIT    266.36     0  02:40      0.76    0.85    0.96
  WS02006238WS02006235 CONDUIT    269.84     0  02:40      1.32    0.60    0.98
  WS02006235WS02006234 CONDUIT    318.31     0  03:11      0.95    3.36    0.93
  WS02006234WS02006232 CONDUIT    318.68     0  03:11      1.17    0.64    0.97
  WS02006232WS02006231 CONDUIT    318.98     0  03:12      0.94    0.67    0.93
  WS02006231WS02006230 CONDUIT    319.61     0  03:12      1.29    4.85    0.83
  WS02006230WS02006229 CONDUIT    330.91     0  03:12      0.86    7.36    1.00
  WS02006228WS02006109 CONDUIT    491.11     0  02:32      0.98    2.15    1.00
  WS02006116WS02004401 CONDUIT    494.53     0  02:35      0.73    0.68    0.81
  WS02006115WS02006116 CONDUIT    495.49     0  02:34      0.83    0.64    0.72
  WS02006113WS02006111 CONDUIT    509.19     0  02:33      2.38    0.61    0.44
  WS02006112WS02006115 CONDUIT    497.32     0  02:33      0.70    0.29    0.85
  WS02006111WS02006112 CONDUIT    494.78     0  02:33      1.39    0.24    0.67
  WS02006110WS02006113 CONDUIT    492.48     0  02:32      1.19    0.45    0.77
  WS02006109WS02006110 CONDUIT    492.34     0  02:32      0.98    0.95    0.99
  WS02004411WS02004412 CONDUIT    491.60     0  02:39      0.88    0.70    0.67
  WS02004401WS02004402 CONDUIT    494.04     0  02:35      0.71    0.59    0.83
  WS02004413WS02003067 CONDUIT    491.27     0  02:40      1.06    0.21    0.57
  WS02004412WS02004413 CONDUIT    491.33     0  02:39      0.78    0.33    0.75
  WS02004410WS02004411 CONDUIT    492.07     0  02:38      0.90    0.67    0.66
  WS02004409WS02004410 CONDUIT    492.89     0  02:37      0.93    0.64    0.64
  WS02004407WS02004409 CONDUIT    493.92     0  02:37      1.42    0.17    0.46
  WS02004406WS02004407 CONDUIT    493.96     0  02:37      0.99    0.22    0.61
  WS02004405WS02004406 CONDUIT    494.03     0  02:37      0.65    0.97    0.93
  WS02004404WS02004405 CONDUIT    493.97     0  02:36      0.65    4.84    0.93
  WS02004403WS02004404 CONDUIT    493.81     0  02:36      0.66    0.36    0.90
  WS02004402WS02004403 CONDUIT    493.92     0  02:36      0.69    0.71    0.85
  WS02004139WS02001211 CONDUIT    285.53     0  03:28      0.80    0.36    0.52
  WS02004138WS02004139 CONDUIT    290.01     0  00:00      3.34    0.06    0.38
  WS02003067WS02003066 CONDUIT    491.29     0  02:40      1.15    0.16    0.40
  WS02001213WS02003059 CONDUIT    293.80     0  03:28      0.80    0.48    0.69
  WS02001212WS02001213 CONDUIT    293.36     0  03:28      1.19    0.45    0.39
  WS02001211WS02001212 CONDUIT    293.13     0  03:27      0.67    0.22    0.57
  WS02003072WS02003073 CONDUIT    747.16     0  02:38      1.59    1.61    0.43
  WS02003069WS02003072 CONDUIT    747.17     0  02:38      1.51    0.36    0.45
  WS02003060WS02003069 CONDUIT    746.92     0  02:37      1.76    0.29    0.40
  WS02003059WS02003060 CONDUIT    294.38     0  03:27      0.82    0.19    0.59
  HS02004901HS02004770 CONDUIT     10.81     0  02:15      0.05    0.04    0.32
  HS02004876HS02004881 CONDUIT     36.57     0  02:18      0.58    0.39    0.09
  HS02004870HS02004876 CONDUIT     29.06     0  02:18      0.41    0.02    0.10
  HS02004842HS02004848 CONDUIT      5.64     0  02:31      0.03    0.00    0.28
  HS02004837HS02004842 CONDUIT      5.83     0  02:31      0.41    0.00    0.29
  HS02004830HS02004837 CONDUIT     24.52     0  02:18      0.45    0.02    0.08
  HS02004824HS02004830 CONDUIT     24.67     0  02:19      0.49    0.03    0.07
  HS02004817HS02004824 CONDUIT     39.99     0  02:21      0.17    0.02    0.40
  HS02004770HS02004777 CONDUIT     55.15     0  02:14      0.23    0.10    0.34
  HS02004799HS02004480 CONDUIT    136.34     0  02:16      0.61    0.17    0.32
  HS02004792HS02004799 CONDUIT    124.63     0  02:16      0.70    0.08    0.25
  HS02004788HS02004792 CONDUIT     72.55     0  02:17      0.85    0.05    0.12
  HS02004785HS02004788 CONDUIT     54.76     0  02:16      0.53    0.41    0.15
  HS02004777HS02004785 CONDUIT     54.71     0  02:15      0.28    0.07    0.28
  HS02004480HS02004478 CONDUIT    161.00     0  02:17      0.98    0.68    0.23
  HS02004479HS02004480 CONDUIT     25.20     0  02:19      0.16    0.02    0.31
  HS02004862HS02004870 CONDUIT     21.22     0  02:19      0.48    0.02    0.06
  HS02004848HS02004852 CONDUIT      8.60     0  02:18      0.32    0.01    0.04
  HS02004856HS02004862 CONDUIT     14.39     0  02:18      0.35    0.01    0.06
  HS02004852HS02004856 CONDUIT      8.57     0  02:20      0.13    0.01    0.09
  HS02004802HS02004478 CONDUIT     55.65     0  02:22      0.31    0.05    0.26
  HS02004478WS02006287 CONDUIT    215.07     0  02:18      1.34    0.06    0.18
  HS02004817HS02004807 CONDUIT     41.18     0  02:23      0.11    0.02    0.52
  HS02004807HS02004802 CONDUIT     55.25     0  02:21      0.26    0.11    0.31
  YS02001759YS02001757 CONDUIT    213.58     0  02:52      0.27    0.15    1.00
  YS02001762YS02001759 CONDUIT    113.39     0  02:57      0.18    0.13    1.00
  YS02001765YS02001762 CONDUIT    114.12     0  02:40      0.23    0.11    1.00
  YS02001770YS02001767 CONDUIT    124.12     0  02:56      0.32    0.49    1.00
  YS02001774YS02001770 CONDUIT     59.36     0  04:39      0.15    0.04    1.00
  YS02001779YS02001774 CONDUIT     59.06     0  04:39      0.08    0.03    1.00
  YS02001649YS02001757 CONDUIT    321.88     0  03:02      0.41    0.20    1.00
  YS02001767YS02001765 CONDUIT    120.59     0  02:37      0.26    0.15    1.00
  YS02006561YS02001783 CONDUIT    349.84     0  02:55      1.83    0.18    0.52
  YS02001783YS02001784 CONDUIT    372.10     0  02:58      1.27    0.51    0.78
  YS02001784YS02001785 CONDUIT    364.86     0  02:59      1.36    0.85    0.84
  YS02001788YS02001790 CONDUIT    368.35     0  02:58      1.92    0.27    0.94
  YS02001790YS02001791 CONDUIT    368.70     0  02:58      2.27    0.40    1.00
  YS02001791YS02001793 CONDUIT    368.73     0  02:58      4.50    0.16    1.00
  YS02001910YS02001907 CONDUIT    107.97     0  03:00      0.49    0.06    0.76
  YS02001786YS02001788 CONDUIT    377.48     0  02:59      1.82    0.73    0.86
  YS02001915YS02001910 CONDUIT    107.87     0  03:01      0.44    0.05    0.55
  YS02001918YS02001915 CONDUIT     36.35     0  03:03      0.44    0.02    0.27
  YS02001923YS02001920 CONDUIT     33.53     0  03:02      0.47    0.02    0.15
  YS02001926YS02001923 CONDUIT     33.50     0  03:01      0.51    0.05    0.14
  YS02001929YS02001926 CONDUIT     33.52     0  03:01      0.54    0.02    0.13
  YS02001920YS02001918 CONDUIT     36.38     0  03:02      0.48    0.04    0.15
  YS02001629YS02163301 CONDUIT     95.41     0  03:03      0.12    0.12    1.00
  YS02001619YS02001622 CONDUIT     84.17     0  02:55      0.66    0.12    1.00
  YS02001622YS02001625 CONDUIT    115.56     0  05:02      0.25    0.06    1.00
  YS02001625YS02001629 CONDUIT    114.03     0  05:03      0.25    0.05    1.00
  YS02163301YS02001633 CONDUIT     83.14     0  03:14      0.11    0.08    1.00
  YS02163601YS02164001 CONDUIT    154.33     0  02:54      0.20    0.14    1.00
  YS02164001YS02001641 CONDUIT    155.37     0  02:54      0.20    0.21    1.00
  YS02001641YS02001644 CONDUIT    155.05     0  03:03      0.20    0.50    1.00
  YS02001647YS02001649 CONDUIT    240.73     0  02:59      0.31    0.13    1.00
  YS02006553YS02006556 CONDUIT    235.68     0  03:02      0.33    0.20    0.84
  YS02006556YS02006558 CONDUIT    235.91     0  03:03      0.33    0.19    0.87
  YSB6556YSB1171       CONDUIT     13.63     0  02:19      0.06    0.01    0.58
  YS02001907YS02006553 CONDUIT    235.32     0  03:02      0.27    0.28    0.96
  YS02006558YS02006561 CONDUIT    352.99     0  02:54      2.41    0.78    0.52
  YS02001633YS02163601 CONDUIT    154.67     0  02:54      0.20    0.16    1.00
  YS02001644YS02001647 CONDUIT    234.90     0  02:54      0.31    0.14    1.00
  YS02001745YS02001748 CONDUIT    174.26     0  05:11      1.43    0.07    0.86
  YS02001748YS02001751 CONDUIT    162.45     0  03:59      1.10    0.08    1.00
  YS02001751YS02001754 CONDUIT    116.62     0  04:25      0.97    0.06    1.00
  YS02001754YS02001757 CONDUIT    119.19     0  03:58      0.33    0.05    1.00
  YS02001882YS02001884 CONDUIT      4.20     0  02:10      0.06    0.00    0.48
  YS02001884YS02001887 CONDUIT     11.85     0  02:07      0.06    0.02    0.58
  YS02001890YS02001895 CONDUIT    129.84     0  02:46      0.30    0.06    0.55
  YS02001895YS02001898 CONDUIT    129.76     0  02:47      0.49    0.23    0.41
  YS02001898YS02001901 CONDUIT    129.60     0  02:48      0.34    0.08    0.49
  YS02001901YS02001904 CONDUIT    128.94     0  02:48      0.30    0.20    0.54
  YS02001904YS02001907 CONDUIT    129.08     0  02:52      0.22    0.05    0.70
  YS02001887YS02001890 CONDUIT    130.48     0  02:43      0.25    0.22    0.63
  YS02001652YS02001649 CONDUIT    132.43     0  02:38      0.33    0.07    1.00
  YS02001655YS02001652 CONDUIT    114.55     0  02:53      1.05    0.06    1.00
  YS02001658YS02001655 CONDUIT    145.15     0  03:33      1.27    0.06    1.00
  YS02001661YS02001658 CONDUIT    146.07     0  05:02      1.48    0.06    0.88
  YS02001664YS02001661 CONDUIT     92.85     0  02:46      1.16    0.03    0.57
  YSB1154YSB6556       CONDUIT     13.43     0  02:17      0.19    0.02    0.47
  YSB1174YSB1171       CONDUIT     12.36     0  02:11      0.06    0.02    0.59
  YSB1171HS02004479    CONDUIT     24.97     0  02:18      0.54    0.02    0.45
  HS02004881HS02006253 CONDUIT     40.91     0  02:18      1.70    0.01    0.11
  YS02001793JiankangQianchi CONDUIT    604.60     0  02:50     12.89    0.05    1.00
  YS02001757CaochengTiaoxuchi CONDUIT    580.54     0  02:58      1.23    0.25    1.00
  WSF200WS02003060     CONDUIT    491.70     0  02:40      1.70    0.11    0.31
  1                    CONDUIT    748.98     0  02:39      3.08    0.26    0.35
  2                    CONDUIT      0.00     0  00:00      0.00    0.00    0.00
  3                    CONDUIT    597.65     0  00:00     10.05    0.95    0.86
  4                    CONDUIT      0.00     0  00:00      0.00    0.00    0.00
  CC-Pump-1            PUMP       200.00     0  02:22              1.00
  CC-Pump-2            PUMP         0.00     0  00:00              0.00
  JK-Pump-1            PUMP       300.00     0  00:00              1.00
  JK-Pump-2            PUMP       300.00     0  00:00              1.00
  XR-Pump-1            PUMP        95.00     0  02:20              1.00
  XR-Pump-2            PUMP        95.00     0  00:00              1.00
  XR-Pump-3            PUMP        95.00     0  00:00              1.00
  XR-Pump-4            PUMP        95.00     0  00:00              1.00
  
  
  ***************************
  Flow Classification Summary
  ***************************
  
  -------------------------------------------------------------------------------------
                      Adjusted    ---------- Fraction of Time in Flow Class ---------- 
                       /Actual         Up    Down  Sub   Sup   Up    Down  Norm  Inlet 
  Conduit               Length    Dry  Dry   Dry   Crit  Crit  Crit  Crit  Ltd   Ctrl  
  -------------------------------------------------------------------------------------
  WS02003066WSF200        1.00   0.09  0.00  0.00  0.00  0.91  0.00  0.00  0.67  0.00
  WS02006287WS02006284    1.00   0.04  0.02  0.00  0.62  0.31  0.00  0.00  0.77  0.00
  WS02006284WS02006280    1.00   0.05  0.00  0.00  0.00  0.00  0.00  0.95  0.00  0.00
  WS02006280WS02006229    1.00   0.05  0.00  0.00  0.00  0.00  0.00  0.95  0.00  0.00
  WS02006229WS02006228    1.00   0.00  0.00  0.00  0.98  0.00  0.00  0.02  0.00  0.00
  WS02006256WS02006235    1.00   0.00  0.00  0.00  0.99  0.01  0.00  0.00  0.00  0.00
  WS02006253WS02006251    1.00   0.03  0.01  0.00  0.95  0.00  0.01  0.00  0.00  0.00
  WS02006252WS02006251    1.00   0.10  0.00  0.00  0.00  0.00  0.90  0.00  0.00  0.00
  WS02006251WS02006249    1.00   0.00  0.00  0.00  1.00  0.00  0.00  0.00  0.63  0.00
  WS02006249WS02006248    1.00   0.00  0.02  0.00  0.56  0.00  0.41  0.00  0.00  0.00
  WS02006248WS02006247    1.00   0.02  0.00  0.00  0.96  0.00  0.00  0.01  0.53  0.00
  WS02006247WS02006245    1.00   0.02  0.00  0.00  0.95  0.00  0.00  0.02  0.00  0.00
  WS02006245WS02006243    1.00   0.02  0.00  0.00  0.92  0.00  0.00  0.06  0.02  0.00
  WS02006243WS02006242    1.00   0.01  0.01  0.00  0.98  0.00  0.00  0.00  0.27  0.00
  WS02006242WS02006240    1.00   0.01  0.00  0.00  0.99  0.00  0.00  0.00  0.00  0.00
  WS02006240WS02006239    1.00   0.00  0.00  0.00  0.94  0.00  0.00  0.06  0.02  0.00
  WS02006239WS02006238    1.00   0.00  0.00  0.00  1.00  0.00  0.00  0.00  0.00  0.00
  WS02006238WS02006235    1.00   0.00  0.00  0.00  1.00  0.00  0.00  0.00  0.00  0.00
  WS02006235WS02006234    1.00   0.00  0.00  0.00  0.93  0.00  0.07  0.00  0.00  0.00
  WS02006234WS02006232    1.00   0.00  0.00  0.00  1.00  0.00  0.00  0.00  0.00  0.00
  WS02006232WS02006231    1.00   0.00  0.00  0.00  0.99  0.00  0.01  0.00  0.00  0.00
  WS02006231WS02006230    1.00   0.01  0.00  0.00  0.50  0.00  0.49  0.00  0.00  0.00
  WS02006230WS02006229    1.00   0.00  0.00  0.00  0.98  0.00  0.00  0.02  0.01  0.00
  WS02006228WS02006109    1.00   0.00  0.00  0.00  0.99  0.00  0.00  0.00  0.00  0.00
  WS02006116WS02004401    1.00   0.03  0.00  0.00  0.97  0.00  0.00  0.00  0.00  0.00
  WS02006115WS02006116    1.00   0.03  0.00  0.00  0.96  0.00  0.00  0.02  0.01  0.00
  WS02006113WS02006111    1.00   0.02  0.00  0.00  0.00  0.98  0.00  0.00  0.17  0.00
  WS02006112WS02006115    1.00   0.02  0.00  0.00  0.97  0.00  0.00  0.00  0.00  0.00
  WS02006111WS02006112    1.00   0.02  0.00  0.00  0.97  0.00  0.00  0.00  0.98  0.00
  WS02006110WS02006113    1.00   0.02  0.00  0.00  0.98  0.00  0.00  0.00  0.00  0.00
  WS02006109WS02006110    1.00   0.00  0.02  0.00  0.98  0.00  0.00  0.00  0.00  0.00
  WS02004411WS02004412    1.00   0.06  0.00  0.00  0.94  0.00  0.00  0.00  0.00  0.00
  WS02004401WS02004402    1.00   0.03  0.00  0.00  0.97  0.00  0.00  0.00  0.00  0.00
  WS02004413WS02003067    1.00   0.07  0.02  0.00  0.00  0.00  0.92  0.00  0.00  0.00
  WS02004412WS02004413    1.00   0.06  0.00  0.00  0.94  0.00  0.00  0.00  0.03  0.00
  WS02004410WS02004411    1.00   0.06  0.00  0.00  0.94  0.00  0.00  0.00  0.01  0.00
  WS02004409WS02004410    1.00   0.06  0.00  0.00  0.94  0.00  0.00  0.00  0.00  0.00
  WS02004407WS02004409    1.00   0.06  0.00  0.00  0.93  0.00  0.00  0.00  0.80  0.00
  WS02004406WS02004407    1.00   0.00  0.06  0.00  0.94  0.00  0.00  0.00  0.00  0.00
  WS02004405WS02004406    1.00   0.00  0.00  0.00  1.00  0.00  0.00  0.00  0.02  0.00
  WS02004404WS02004405    1.00   0.00  0.00  0.00  1.00  0.00  0.00  0.00  0.00  0.00
  WS02004403WS02004404    1.00   0.00  0.03  0.00  0.97  0.00  0.00  0.00  0.02  0.00
  WS02004402WS02004403    1.00   0.03  0.00  0.00  0.97  0.00  0.00  0.00  0.00  0.00
  WS02004139WS02001211    1.00   0.00  0.00  0.00  0.99  0.00  0.01  0.00  0.00  0.00
  WS02004138WS02004139    1.00   0.00  0.00  0.00  0.98  0.01  0.00  0.00  1.00  0.00
  WS02003067WS02003066    1.00   0.08  0.01  0.00  0.91  0.00  0.00  0.00  0.00  0.00
  WS02001213WS02003059    1.00   0.00  0.00  0.00  0.99  0.00  0.00  0.00  0.00  0.00
  WS02001212WS02001213    1.00   0.01  0.00  0.00  0.55  0.00  0.44  0.00  0.00  0.00
  WS02001211WS02001212    1.00   0.00  0.01  0.00  0.99  0.00  0.00  0.00  0.00  0.00
  WS02003072WS02003073    1.00   0.00  0.00  0.00  0.00  0.00  0.00  1.00  0.00  0.00
  WS02003069WS02003072    1.00   0.00  0.00  0.00  0.99  0.01  0.00  0.00  0.57  0.00
  WS02003060WS02003069    1.00   0.00  0.00  0.00  0.96  0.04  0.00  0.00  0.06  0.00
  WS02003059WS02003060    1.00   0.00  0.00  0.00  0.99  0.01  0.00  0.00  0.01  0.00
  HS02004901HS02004770    1.00   0.05  0.00  0.00  0.95  0.00  0.00  0.00  0.02  0.00
  HS02004876HS02004881    1.00   0.02  0.00  0.00  0.98  0.00  0.00  0.00  0.00  0.00
  HS02004870HS02004876    1.00   0.01  0.00  0.00  0.99  0.00  0.00  0.00  0.95  0.00
  HS02004842HS02004848    1.00   0.00  0.05  0.00  0.95  0.00  0.00  0.00  0.68  0.00
  HS02004837HS02004842    1.00   0.00  0.00  0.00  0.99  0.01  0.00  0.00  0.11  0.00
  HS02004830HS02004837    1.00   0.00  0.00  0.00  1.00  0.00  0.00  0.00  0.99  0.00
  HS02004824HS02004830    1.00   0.00  0.00  0.00  1.00  0.00  0.00  0.00  0.00  0.00
  HS02004817HS02004824    1.00   0.00  0.00  0.00  1.00  0.00  0.00  0.00  1.00  0.00
  HS02004770HS02004777    1.00   0.00  0.05  0.00  0.95  0.00  0.00  0.00  0.07  0.00
  HS02004799HS02004480    1.00   0.01  0.02  0.00  0.93  0.00  0.04  0.00  0.00  0.00
  HS02004792HS02004799    1.00   0.00  0.00  0.00  0.98  0.02  0.00  0.00  0.98  0.00
  HS02004788HS02004792    1.00   0.00  0.00  0.00  0.98  0.02  0.00  0.00  0.98  0.00
  HS02004785HS02004788    1.00   0.00  0.00  0.00  1.00  0.00  0.00  0.00  0.00  0.00
  HS02004777HS02004785    1.00   0.00  0.00  0.00  1.00  0.00  0.00  0.00  0.20  0.00
  HS02004480HS02004478    1.00   0.05  0.00  0.00  0.68  0.00  0.00  0.27  0.00  0.00
  HS02004479HS02004480    1.00   0.03  0.00  0.00  0.97  0.00  0.00  0.00  0.16  0.00
  HS02004862HS02004870    1.00   0.00  0.00  0.00  1.00  0.00  0.00  0.00  0.06  0.00
  HS02004848HS02004852    1.00   0.05  0.00  0.00  0.95  0.00  0.00  0.00  0.71  0.00
  HS02004856HS02004862    1.00   0.00  0.08  0.00  0.92  0.00  0.00  0.00  0.74  0.00
  HS02004852HS02004856    1.00   0.05  0.01  0.00  0.94  0.00  0.00  0.00  0.83  0.00
  HS02004802HS02004478    1.00   0.05  0.01  0.00  0.94  0.00  0.00  0.00  0.01  0.00
  HS02004478WS02006287    1.00   0.06  0.00  0.00  0.84  0.10  0.00  0.00  0.77  0.00
  HS02004817HS02004807    1.00   0.00  0.05  0.00  0.95  0.00  0.00  0.00  0.00  0.00
  HS02004807HS02004802    1.00   0.05  0.00  0.00  0.95  0.00  0.00  0.00  0.01  0.00
  YS02001759YS02001757    1.00   0.00  0.00  0.00  1.00  0.00  0.00  0.00  0.17  0.00
  YS02001762YS02001759    1.00   0.00  0.00  0.00  1.00  0.00  0.00  0.00  0.04  0.00
  YS02001765YS02001762    1.00   0.00  0.00  0.00  1.00  0.00  0.00  0.00  0.22  0.00
  YS02001770YS02001767    1.00   0.00  0.00  0.00  1.00  0.00  0.00  0.00  0.00  0.00
  YS02001774YS02001770    1.00   0.00  0.06  0.00  0.94  0.00  0.00  0.00  0.07  0.00
  YS02001779YS02001774    1.00   0.00  0.00  0.00  1.00  0.00  0.00  0.00  0.26  0.00
  YS02001649YS02001757    1.00   0.00  0.00  0.00  1.00  0.00  0.00  0.00  0.19  0.00
  YS02001767YS02001765    1.00   0.00  0.00  0.00  1.00  0.00  0.00  0.00  0.01  0.00
  YS02006561YS02001783    1.00   0.08  0.00  0.00  0.14  0.78  0.00  0.00  0.73  0.00
  YS02001783YS02001784    1.00   0.00  0.08  0.00  0.92  0.00  0.00  0.00  0.00  0.00
  YS02001784YS02001785    1.00   0.00  0.00  0.00  1.00  0.00  0.00  0.00  0.25  0.00
  YS02001788YS02001790    1.00   0.00  0.00  0.00  0.29  0.71  0.00  0.00  0.77  0.00
  YS02001790YS02001791    1.00   0.00  0.00  0.00  0.25  0.75  0.00  0.00  0.42  0.00
  YS02001791YS02001793    1.00   0.00  0.00  0.00  0.26  0.74  0.00  0.00  0.02  0.00
  YS02001910YS02001907    1.00   0.00  0.00  0.00  0.97  0.00  0.00  0.02  0.13  0.00
  YS02001786YS02001788    1.00   0.00  0.00  0.00  0.26  0.74  0.00  0.00  0.00  0.00
  YS02001915YS02001910    1.00   0.00  0.00  0.00  1.00  0.00  0.00  0.00  0.24  0.00
  YS02001918YS02001915    1.00   0.00  0.01  0.00  0.98  0.01  0.00  0.00  0.82  0.00
  YS02001923YS02001920    1.00   0.00  0.00  0.00  1.00  0.00  0.00  0.00  1.00  0.00
  YS02001926YS02001923    1.00   0.00  0.04  0.00  0.00  0.00  0.96  0.00  0.00  0.00
  YS02001929YS02001926    1.00   0.00  0.05  0.00  0.95  0.00  0.00  0.00  0.87  0.00
  YS02001920YS02001918    1.00   0.00  0.01  0.00  0.99  0.00  0.00  0.00  0.00  0.00
  YS02001629YS02163301    1.00   0.07  0.00  0.00  0.93  0.00  0.00  0.00  0.00  0.00
  YS02001619YS02001622    1.00   0.05  0.00  0.00  0.95  0.00  0.00  0.00  0.00  0.00
  YS02001622YS02001625    1.00   0.05  0.00  0.00  0.95  0.00  0.00  0.00  0.13  0.00
  YS02001625YS02001629    1.00   0.05  0.03  0.00  0.89  0.00  0.02  0.00  0.00  0.00
  YS02163301YS02001633    1.00   0.00  0.07  0.00  0.93  0.00  0.00  0.00  0.00  0.00
  YS02163601YS02164001    1.00   0.00  0.04  0.00  0.96  0.00  0.00  0.00  0.00  0.00
  YS02164001YS02001641    1.00   0.02  0.02  0.00  0.96  0.00  0.00  0.00  0.07  0.00
  YS02001641YS02001644    1.00   0.00  0.01  0.00  0.99  0.00  0.00  0.00  0.00  0.00
  YS02001647YS02001649    1.00   0.00  0.08  0.00  0.92  0.00  0.00  0.00  0.01  0.00
  YS02006553YS02006556    1.00   0.02  0.00  0.00  0.98  0.00  0.00  0.00  0.03  0.00
  YS02006556YS02006558    1.00   0.00  0.01  0.00  0.99  0.00  0.00  0.00  0.00  0.00
  YSB6556YSB1171          1.00   0.03  0.02  0.00  0.95  0.00  0.00  0.00  0.00  0.00
  YS02001907YS02006553    1.00   0.01  0.02  0.00  0.98  0.00  0.00  0.00  0.00  0.00
  YS02006558YS02006561    1.00   0.08  0.00  0.00  0.00  0.92  0.00  0.00  0.69  0.00
  YS02001633YS02163601    1.00   0.00  0.01  0.00  0.99  0.00  0.00  0.00  0.20  0.00
  YS02001644YS02001647    1.00   0.00  0.08  0.00  0.92  0.00  0.00  0.00  0.00  0.00
  YS02001745YS02001748    1.00   0.00  0.00  0.00  0.84  0.02  0.00  0.15  0.23  0.00
  YS02001748YS02001751    1.00   0.00  0.00  0.00  0.97  0.03  0.00  0.00  0.24  0.00
  YS02001751YS02001754    1.00   0.00  0.00  0.00  0.91  0.00  0.00  0.09  0.02  0.00
  YS02001754YS02001757    1.00   0.00  0.00  0.00  0.99  0.01  0.00  0.00  0.26  0.00
  YS02001882YS02001884    1.00   0.07  0.00  0.00  0.93  0.00  0.00  0.00  0.00  0.00
  YS02001884YS02001887    1.00   0.03  0.01  0.00  0.95  0.00  0.00  0.00  0.00  0.00
  YS02001890YS02001895    1.00   0.01  0.07  0.00  0.93  0.00  0.00  0.00  0.00  0.00
  YS02001895YS02001898    1.00   0.07  0.00  0.00  0.92  0.00  0.01  0.00  0.00  0.00
  YS02001898YS02001901    1.00   0.07  0.00  0.00  0.92  0.00  0.00  0.00  0.02  0.00
  YS02001901YS02001904    1.00   0.07  0.00  0.00  0.93  0.00  0.00  0.00  0.00  0.00
  YS02001904YS02001907    1.00   0.01  0.06  0.00  0.93  0.00  0.00  0.00  0.00  0.00
  YS02001887YS02001890    1.00   0.00  0.00  0.00  0.97  0.00  0.02  0.00  0.00  0.00
  YS02001652YS02001649    1.00   0.00  0.00  0.00  1.00  0.00  0.00  0.00  0.26  0.00
  YS02001655YS02001652    1.00   0.00  0.00  0.00  0.91  0.00  0.00  0.09  0.02  0.00
  YS02001658YS02001655    1.00   0.00  0.06  0.00  0.90  0.04  0.00  0.00  0.11  0.00
  YS02001661YS02001658    1.00   0.06  0.00  0.00  0.83  0.11  0.00  0.00  0.24  0.00
  YS02001664YS02001661    1.00   0.05  0.00  0.00  0.68  0.27  0.00  0.00  0.65  0.00
  YSB1154YSB6556          1.00   0.05  0.00  0.00  0.95  0.00  0.00  0.00  0.02  0.00
  YSB1174YSB1171          1.00   0.03  0.01  0.00  0.96  0.00  0.00  0.00  0.00  0.00
  YSB1171HS02004479       1.00   0.03  0.00  0.00  0.97  0.00  0.00  0.00  0.13  0.00
  HS02004881HS02006253    1.00   0.03  0.00  0.00  0.48  0.01  0.00  0.48  0.30  0.00
  YS02001793JiankangQianchi    1.00   0.00  0.00  0.00  0.43  0.56  0.00  0.00  0.10  0.00
  YS02001757CaochengTiaoxuchi    1.00   0.00  0.10  0.00  0.90  0.00  0.00  0.00  0.00  0.00
  WSF200WS02003060        1.00   0.00  0.09  0.00  0.79  0.12  0.00  0.00  0.38  0.00
  1                       1.00   0.00  0.00  0.00  0.00  1.00  0.00  0.00  0.21  0.00
  2                       1.00   1.00  0.00  0.00  0.00  0.00  0.00  0.00  0.00  0.00
  3                       1.00   0.15  0.00  0.00  0.00  0.85  0.00  0.00  0.00  0.00
  4                       1.00   1.00  0.00  0.00  0.00  0.00  0.00  0.00  0.00  0.00
  
  
  *************************
  Conduit Surcharge Summary
  *************************
  
  ----------------------------------------------------------------------------
                                                           Hours        Hours 
                         --------- Hours Full --------   Above Full   Capacity
  Conduit                Both Ends  Upstream  Dnstream   Normal Flow   Limited
  ----------------------------------------------------------------------------
  WS02006229WS02006228        0.69      0.77      0.69      2.38         0.69
  WS02006256WS02006235        5.65      5.65      7.83      5.34         0.01
  WS02006249WS02006248        0.01      0.01      0.01      2.20         0.01
  WS02006247WS02006245        0.01      0.01      0.01      2.37         0.01
  WS02006242WS02006240        0.01      0.01      0.01      0.01         0.01
  WS02006238WS02006235        0.01      0.01      0.05      0.01         0.01
  WS02006235WS02006234        0.01      0.01      0.01      5.68         0.01
  WS02006234WS02006232        0.01      0.01      0.19      0.01         0.01
  WS02006232WS02006231        0.01      0.01      0.19      0.01         0.01
  WS02006231WS02006230        0.01      0.01      0.01      5.64         0.01
  WS02006230WS02006229        1.41      2.31      1.41      5.71         1.41
  WS02006228WS02006109        0.73      1.03      0.73      2.71         0.73
  WS02006112WS02006115        0.01      0.01      0.09      0.01         0.01
  WS02006111WS02006112        0.01      0.01      2.39      0.01         0.01
  WS02006110WS02006113        0.01      0.01      0.86      0.01         0.01
  WS02006109WS02006110        0.01      0.01      1.03      0.01         0.01
  WS02004404WS02004405        0.01      0.01      0.01      5.62         0.01
  WS02003072WS02003073        0.01      0.01      0.01      2.58         0.01
  YS02001759YS02001757        5.21      5.21      5.34      0.01         0.01
  YS02001762YS02001759        5.15      5.15      5.21      0.01         0.01
  YS02001765YS02001762        5.04      5.04      5.15      0.01         0.01
  YS02001770YS02001767        4.49      4.50      4.64      0.01         0.67
  YS02001774YS02001770        4.14      4.14      5.11      0.01         0.01
  YS02001779YS02001774        3.06      3.06      5.11      0.01         0.01
  YS02001649YS02001757        5.17      5.17      5.34      0.01         0.01
  YS02001767YS02001765        4.64      4.64      5.04      0.01         0.01
  YS02001788YS02001790        0.01      0.01      0.70      0.01         0.01
  YS02001790YS02001791        0.70      0.70      0.84      0.01         0.01
  YS02001791YS02001793        0.84      0.84      1.12      0.01         0.01
  YS02001629YS02163301        4.05      4.05      4.25      0.01         0.01
  YS02001619YS02001622        1.93      1.93      2.04      0.01         0.01
  YS02001622YS02001625        2.04      2.04      3.60      0.01         0.01
  YS02001625YS02001629        1.92      1.92      3.60      0.01         0.01
  YS02163301YS02001633        4.25      4.25      5.06      0.01         0.01
  YS02163601YS02164001        5.03      5.03      5.17      0.01         0.01
  YS02164001YS02001641        5.03      5.03      5.09      0.01         0.01
  YS02001641YS02001644        5.09      5.09      5.10      0.01         0.55
  YS02001647YS02001649        3.50      3.50      5.17      0.01         0.01
  YS02001633YS02163601        4.98      4.98      5.17      0.01         0.01
  YS02001644YS02001647        3.50      3.50      5.10      0.01         0.01
  YS02001745YS02001748        0.01      0.01      0.60      0.01         0.01
  YS02001748YS02001751        1.13      1.13      2.16      0.01         0.01
  YS02001751YS02001754        2.16      2.16      3.15      0.01         0.01
  YS02001754YS02001757        3.57      3.57      5.34      0.01         0.01
  YS02001652YS02001649        3.64      3.64      5.17      0.01         0.01
  YS02001655YS02001652        2.28      2.28      3.35      0.01         0.01
  YS02001658YS02001655        0.71      0.71      2.28      0.01         0.01
  YS02001661YS02001658        0.01      0.01      0.71      0.01         0.01
  YS02001793JiankangQianchi        1.05      1.05      1.93      0.01         0.01
  YS02001757CaochengTiaoxuchi        1.55      1.55      5.34      0.01         0.01
  3                           0.01      0.01      0.01      0.01         0.01
  
  
  ***************
  Pumping Summary
  ***************
  
  ---------------------------------------------------------------------------------------------------------
                                                  Min       Avg       Max     Total     Power    % Time Off
                        Percent   Number of      Flow      Flow      Flow    Volume     Usage    Pump Curve
  Pump                 Utilized   Start-Ups       LPS       LPS       LPS  10^6 ltr     Kw-hr    Low   High
  ---------------------------------------------------------------------------------------------------------
  CC-Pump-1               34.68           2      0.00    180.14    200.00     1.746      5.72    0.0   33.2
  CC-Pump-2                0.00           0      0.00      0.00      0.00     0.000      0.00    0.0    0.0
  JK-Pump-1               76.59           3      0.00    103.30    300.00     1.438     24.97    0.0    0.0
  JK-Pump-2               95.74           2      0.00    172.82    300.00     3.098     40.89    0.0    0.0
  XR-Pump-1               27.65           2      0.00     81.56     95.00     0.627      7.22    0.0    0.0
  XR-Pump-2               38.30           3      0.00     71.78     95.00     0.884     15.08    0.0    0.0
  XR-Pump-3               93.62           3      0.00     86.76     95.00     2.337     24.92    0.0    0.0
  XR-Pump-4               97.87           2      0.00     87.34     95.00     2.451     26.72    0.0    0.0
  

  Analysis begun on:  Tue Dec 21 17:01:06 2021
  Analysis ended on:  Tue Dec 21 17:01:08 2021
  Total elapsed time: 00:00:02