
  EPA STORM WATER MANAGEMENT MODEL - VERSION 5.1 (Build 5.3.0.dev0)
  --------------------------------------------------------------

  WARNING 04: minimum elevation drop used for Conduit WS02004404WS02004405
  WARNING 03: negative offset ignored for Link YS02001904YS02001907
  
  *********************************************************
  NOTE: The summary statistics displayed in this report are
  based on results found at every computational time step,  
  not just on results from each reporting time step.
  *********************************************************
  
  ****************
  Analysis Options
  ****************
  Flow Units ............... LPS
  Process Models:
    Rainfall/Runoff ........ YES
    RDII ................... NO
    Snowmelt ............... NO
    Groundwater ............ NO
    Flow Routing ........... YES
    Ponding Allowed ........ NO
    Water Quality .......... NO
  Infiltration Method ...... HORTON
  Flow Routing Method ...... DYNWAVE
  Surcharge Method ......... EXTRAN
  Starting Date ............ 08/28/2015 08:00:00
  Ending Date .............. 08/28/2015 15:50:00
  Antecedent Dry Days ...... 8.0
  Report Time Step ......... 00:01:00
  Wet Time Step ............ 00:01:00
  Dry Time Step ............ 00:01:00
  Routing Time Step ........ 5.00 sec
  Variable Time Step ....... YES
  Maximum Trials ........... 8
  Number of Threads ........ 4
  Head Tolerance ........... 0.001500 m
  
  
  **************************        Volume         Depth
  Runoff Quantity Continuity     hectare-m            mm
  **************************     ---------       -------
  Total Precipitation ......         3.517         7.699
  Evaporation Loss .........         0.000         0.000
  Infiltration Loss ........         0.893         1.955
  Surface Runoff ...........         1.682         3.682
  Final Storage ............         0.943         2.064
  Continuity Error (%) .....        -0.018
  
  
  **************************        Volume        Volume
  Flow Routing Continuity        hectare-m      10^6 ltr
  **************************     ---------     ---------
  Dry Weather Inflow .......         0.616         6.165
  Wet Weather Inflow .......         1.681        16.806
  Groundwater Inflow .......         0.000         0.000
  RDII Inflow ..............         0.000         0.000
  External Inflow ..........         0.102         1.024
  External Outflow .........         1.606        16.056
  Flooding Loss ............         0.329         3.292
  Evaporation Loss .........         0.000         0.000
  Exfiltration Loss ........         0.000         0.000
  Initial Stored Volume ....         0.076         0.761
  Final Stored Volume ......         0.634         6.341
  Continuity Error (%) .....        -3.771
  
  
  *************************
  Highest Continuity Errors
  *************************
  Node YS02001774 (34.68%)
  Node HS02004842 (23.62%)
  Node JK-storage (-18.83%)
  Node YS02001884 (15.49%)
  Node YSB1171 (5.13%)
  
  
  ***************************
  Time-Step Critical Elements
  ***************************
  Link WS02006252WS02006251 (49.01%)
  Link 3 (44.42%)
  Link WS02006280WS02006229 (1.85%)
  
  
  ********************************
  Highest Flow Instability Indexes
  ********************************
  Link WS02006113WS02006111 (46)
  Link YS02001779YS02001774 (28)
  Link YS02001774YS02001770 (27)
  Link YS02001765YS02001762 (21)
  Link YS02001762YS02001759 (21)
  
  
  *************************
  Routing Time Step Summary
  *************************
  Minimum Time Step           :     0.50 sec
  Average Time Step           :     0.99 sec
  Maximum Time Step           :     5.00 sec
  Percent in Steady State     :    -0.00
  Average Iterations per Step :     4.12
  Percent Not Converging      :    20.21
  
  
  ***************************
  Subcatchment Runoff Summary
  ***************************
  
  ------------------------------------------------------------------------------------------------------------------------------
                            Total      Total      Total      Total     Imperv       Perv      Total       Total     Peak  Runoff
                           Precip      Runon       Evap      Infil     Runoff     Runoff     Runoff      Runoff   Runoff   Coeff
  Subcatchment                 mm         mm         mm         mm         mm         mm         mm    10^6 ltr      LPS
  ------------------------------------------------------------------------------------------------------------------------------
  sub0                       7.70       0.00       0.00       0.54       5.90       0.00       5.90        0.00     2.28   0.766
  sub1                       7.70       0.00       0.00       0.85       5.60       0.00       5.60        0.04    12.01   0.727
  sub2                       7.70       0.00       0.00       2.85       3.94       0.00       3.94        0.04    10.62   0.512
  sub3                       7.70       0.00       0.00       2.85       3.91       0.00       3.91        0.09    21.84   0.508
  sub4                       7.70       0.00       0.00       0.85       5.45       0.00       5.45        0.11    24.49   0.708
  sub5                       7.70       0.00       0.00       0.54       5.85       0.00       5.85        0.07    21.36   0.760
  sub7                       7.70       0.00       0.00       0.69       5.75       0.00       5.75        0.02     7.53   0.747
  sub8                       7.70       0.00       0.00       0.69       5.74       0.00       5.74        0.04    13.30   0.746
  sub9                       7.70       0.00       0.00       0.69       5.74       0.00       5.74        0.03     9.86   0.746
  sub10                      7.70       0.00       0.00       0.62       5.79       0.00       5.79        0.06    21.33   0.752
  sub11                      7.70       0.00       0.00       0.62       5.81       0.00       5.81        0.07    25.01   0.754
  sub12                      7.70       0.00       0.00       1.00       5.51       0.00       5.51        0.05    21.13   0.716
  sub14                      7.70       0.00       0.00       0.69       5.74       0.00       5.74        0.05    19.27   0.745
  sub15                      7.70       0.00       0.00       2.31       4.41       0.00       4.41        0.08    26.13   0.573
  sub16                      7.70       0.00       0.00       2.54       4.24       0.00       4.24        0.04    18.58   0.551
  sub17                      7.70       0.00       0.00       2.46       4.30       0.00       4.30        0.04    15.03   0.559
  sub22                      7.70       0.00       0.00       3.31       3.60       0.00       3.60        0.23    85.60   0.468
  sub23                      7.70       0.00       0.00       2.85       3.98       0.00       3.98        0.19    72.88   0.517
  sub60                      7.70       0.00       0.00       0.92       4.16       0.00       4.16        1.26   124.62   0.540
  sub61                      7.70       0.00       0.00       1.31       4.36       0.00       4.36        1.34   156.18   0.566
  sub62                      7.70       0.00       0.00       0.62       4.70       0.00       4.70        1.44   159.65   0.610
  sub63                      7.70       0.00       0.00       2.23       3.85       0.00       3.85        1.17   145.76   0.500
  sub64                      7.70       0.00       0.00       1.15       3.98       0.00       3.98        1.21   118.39   0.517
  sub65                      7.70       0.00       0.00       1.00       4.03       0.00       4.03        1.24   120.16   0.524
  sub66                      7.70       0.00       0.00       2.23       3.45       0.00       3.45        1.06   108.45   0.448
  sub67                      7.70       0.00       0.00       0.62       5.08       0.00       5.08        1.57   204.88   0.660
  sub68                      7.70       0.00       0.00       1.08       4.61       0.00       4.61        1.42   172.66   0.599
  sub69                      7.70       0.00       0.00       1.15       4.90       0.00       4.90        1.14   171.52   0.636
  sub70                      7.70       5.00       0.00       4.32       6.24       0.00       6.24        1.43   142.17   0.491
  sub71                      7.70       0.00       0.00       0.62       4.52       0.00       4.52        1.07   111.46   0.588
  sub72                      7.70       0.00       0.00       0.54       3.34       0.00       3.34        0.68    53.99   0.434
  sub73                      7.70       6.07       0.00       4.68       6.53       0.00       6.53        1.53   124.36   0.474
  sub74                      7.70       0.00       0.00       5.77       1.47       0.00       1.47        0.59    95.72   0.191
  
  
  ******************
  Node Depth Summary
  ******************
  
  ---------------------------------------------------------------------------------
                                 Average  Maximum  Maximum  Time of Max    Reported
                                   Depth    Depth      HGL   Occurrence   Max Depth
  Node                 Type       Meters   Meters   Meters  days hr:min      Meters
  ---------------------------------------------------------------------------------
  WS02001211           JUNCTION     0.64     0.72     5.56     0  02:30        0.72
  WS02001212           JUNCTION     0.37     0.45     5.52     0  02:31        0.45
  WS02001213           JUNCTION     0.60     0.71     5.48     0  02:31        0.71
  WS02003069           JUNCTION     0.41     0.56     5.15     0  02:32        0.56
  WS02003072           JUNCTION     0.48     0.62     4.99     0  02:33        0.62
  WS02003073           JUNCTION     0.29     0.38     4.45     0  02:33        0.38
  WS02003060           JUNCTION     0.37     0.50     5.43     0  02:31        0.50
  WS02003066           JUNCTION     0.22     0.31     5.86     0  02:29        0.31
  WS02003059           JUNCTION     0.65     0.77     5.46     0  02:31        0.77
  WS02003067           JUNCTION     0.55     0.72     6.04     0  02:29        0.72
  WS02004401           JUNCTION     0.64     0.90     6.90     0  02:26        0.90
  WS02004402           JUNCTION     0.68     0.92     6.88     0  02:26        0.92
  WS02004403           JUNCTION     0.70     0.93     6.86     0  02:26        0.93
  WS02004404           JUNCTION     0.77     1.00     6.85     0  02:26        1.00
  WS02004406           JUNCTION     0.78     0.99     6.82     0  02:27        0.99
  WS02004409           JUNCTION     0.46     0.70     6.47     0  02:28        0.70
  WS02004410           JUNCTION     0.48     0.72     6.44     0  02:29        0.72
  WS02004411           JUNCTION     0.50     0.72     6.40     0  02:29        0.72
  WS02004412           JUNCTION     0.51     0.73     6.37     0  02:28        0.73
  WS02004413           JUNCTION     0.67     0.88     6.35     0  02:28        0.88
  WS02004405           JUNCTION     0.77     0.99     6.84     0  02:27        0.99
  WS02006109           JUNCTION     0.72     1.03     7.65     0  02:22        1.02
  WS02006110           JUNCTION     0.72     0.96     7.54     0  02:22        0.96
  WS02006111           JUNCTION     0.21     0.30     7.01     0  02:23        0.30
  WS02006112           JUNCTION     0.81     1.14     7.03     0  02:26        1.11
  WS02006113           JUNCTION     0.32     0.48     7.37     0  02:23        0.48
  WS02006115           JUNCTION     0.53     0.80     6.94     0  02:26        0.80
  WS02006116           JUNCTION     0.62     0.88     6.92     0  02:26        0.88
  WS02006230           JUNCTION     0.67     1.08     7.82     0  02:23        1.08
  WS02006231           JUNCTION     0.44     0.74     7.86     0  02:22        0.74
  WS02006232           JUNCTION     0.58     0.85     7.89     0  02:24        0.85
  WS02006234           JUNCTION     0.49     0.78     7.94     0  02:24        0.78
  WS02006235           JUNCTION     0.52     0.80     7.96     0  02:24        0.80
  WS02006238           JUNCTION     0.54     0.83     7.97     0  02:24        0.82
  WS02006240           JUNCTION     0.42     0.72     8.02     0  02:25        0.72
  WS02006242           JUNCTION     0.46     0.78     8.05     0  02:25        0.78
  WS02006243           JUNCTION     0.33     0.65     8.07     0  02:25        0.65
  WS02006245           JUNCTION     0.30     0.61     8.09     0  02:25        0.61
  WS02006247           JUNCTION     0.31     0.61     8.11     0  02:25        0.61
  WS02006248           JUNCTION     0.26     0.54     8.13     0  02:25        0.54
  WS02006249           JUNCTION     0.29     0.55     8.15     0  02:26        0.55
  WS02006239           JUNCTION     0.48     0.78     7.99     0  02:24        0.78
  WS02006251           JUNCTION     0.28     0.52     8.19     0  02:25        0.52
  WS02006252           JUNCTION     0.24     0.35     8.59     0  02:14        0.35
  WS02006253           JUNCTION     0.30     0.54     8.19     0  02:25        0.54
  WS02006256           JUNCTION     1.05     2.35     9.28     0  00:00        1.19
  WS02004138           JUNCTION     0.15     0.17     7.42     0  00:00        0.17
  WS02004407           JUNCTION     0.21     0.31     6.62     0  02:27        0.31
  WS02006228           JUNCTION     0.71     1.08     7.73     0  02:24        1.08
  WS02006229           JUNCTION     0.69     1.08     7.78     0  02:22        1.08
  WS02006280           JUNCTION     0.06     0.18     8.45     0  02:14        0.18
  WS02006284           JUNCTION     0.36     0.53     8.93     0  02:14        0.53
  WS02006287           JUNCTION     0.09     0.27     9.22     0  02:13        0.27
  WSF200               JUNCTION     0.20     0.33     5.56     0  02:29        0.33
  HS02004901           JUNCTION     0.12     0.28    10.10     0  02:11        0.28
  HS02004881           JUNCTION     0.01     0.03     9.06     0  02:14        0.03
  HS02004876           JUNCTION     0.04     0.11     9.14     0  02:08        0.11
  HS02004870           JUNCTION     0.01     0.06     9.34     0  02:14        0.06
  HS02004862           JUNCTION     0.02     0.06     9.45     0  02:15        0.06
  HS02004856           JUNCTION     0.08     0.12     9.54     0  02:14        0.12
  HS02004852           JUNCTION     0.01     0.04     9.55     0  02:15        0.04
  HS02004848           JUNCTION     0.01     0.04     9.64     0  02:14        0.04
  HS02004842           JUNCTION     0.33     0.37     9.64     0  02:14        0.37
  HS02004837           JUNCTION     0.03     0.06     9.64     0  02:14        0.06
  HS02004830           JUNCTION     0.04     0.07     9.54     0  02:14        0.07
  HS02004824           JUNCTION     0.02     0.05     9.45     0  02:17        0.05
  HS02004817           JUNCTION     0.43     0.57     9.42     0  02:14        0.57
  HS02004807           JUNCTION     0.12     0.25     9.42     0  02:14        0.25
  HS02004802           JUNCTION     0.16     0.28     9.41     0  02:14        0.28
  HS02004799           JUNCTION     0.11     0.32     9.53     0  02:12        0.32
  HS02004792           JUNCTION     0.03     0.13     9.66     0  02:12        0.13
  HS02004788           JUNCTION     0.02     0.10    10.00     0  02:12        0.10
  HS02004785           JUNCTION     0.04     0.17    10.07     0  02:12        0.17
  HS02004777           JUNCTION     0.14     0.29    10.09     0  02:12        0.29
  HS02004770           JUNCTION     0.11     0.27    10.10     0  02:11        0.27
  HS02004480           JUNCTION     0.07     0.26     9.50     0  02:13        0.26
  HS02004479           JUNCTION     0.11     0.29     9.50     0  02:13        0.29
  HS02004478           JUNCTION     0.06     0.17     9.40     0  02:14        0.17
  YS02001745           JUNCTION     0.58     0.85     8.36     0  05:46        0.85
  YS02001748           JUNCTION     0.97     1.29     8.37     0  05:44        1.28
  YS02001751           JUNCTION     1.15     2.02     8.90     0  03:10        1.48
  YS02001754           JUNCTION     1.40     2.06     8.67     0  03:10        1.76
  YS02001762           JUNCTION     1.59     1.98     8.38     0  04:53        1.97
  YS02001765           JUNCTION     1.55     1.93     8.38     0  05:45        1.92
  YS02001767           JUNCTION     1.51     1.89     8.38     0  05:45        1.88
  YS02001770           JUNCTION     1.51     1.88     8.38     0  05:45        1.88
  YS02001774           JUNCTION     1.57     1.96     8.38     0  04:41        1.95
  YS02001779           JUNCTION     1.33     1.68     8.37     0  04:29        1.68
  YS02001882           JUNCTION     0.35     0.60     7.32     0  02:51        0.60
  YS02001884           JUNCTION     0.44     0.69     7.31     0  02:43        0.69
  YS02001759           JUNCTION     1.63     2.01     8.38     0  05:44        2.00
  YS02001887           JUNCTION     0.52     0.78     7.31     0  02:50        0.77
  YS02001890           JUNCTION     0.55     0.80     7.31     0  02:50        0.80
  YS02001898           JUNCTION     0.32     0.56     7.29     0  02:49        0.56
  YS02001901           JUNCTION     0.44     0.69     7.29     0  02:47        0.68
  YS02001904           JUNCTION     0.42     0.66     7.29     0  02:48        0.66
  YS02001907           JUNCTION     0.75     1.00     7.29     0  02:45        1.00
  YS02001910           JUNCTION     0.54     0.79     7.30     0  02:52        0.79
  YS02001915           JUNCTION     0.34     0.57     7.29     0  02:47        0.57
  YS02001918           JUNCTION     0.11     0.22     7.29     0  02:40        0.22
  YS02001619           JUNCTION     1.11     1.56     8.48     0  03:31        1.49
  YS02001629           JUNCTION     1.46     1.85     8.40     0  03:47        1.84
  YS02001641           JUNCTION     1.56     1.93     8.37     0  04:28        1.92
  YS02001644           JUNCTION     1.57     1.92     8.35     0  04:12        1.92
  YS02001652           JUNCTION     1.41     2.00     8.60     0  03:07        1.79
  YS02001655           JUNCTION     1.18     2.12     8.97     0  02:53        1.56
  YS02001920           JUNCTION     0.21     0.29     7.30     0  02:47        0.29
  YS02001923           JUNCTION     0.08     0.11     7.37     0  03:01        0.11
  YS02001926           JUNCTION     0.17     0.21     7.66     0  03:01        0.21
  YS02001929           JUNCTION     0.08     0.11     7.80     0  03:01        0.11
  YS02001658           JUNCTION     0.91     2.00     9.14     0  03:30        1.29
  YS02001661           JUNCTION     0.69     1.05     8.46     0  04:37        1.05
  YS02001664           JUNCTION     0.29     0.54     8.46     0  04:36        0.52
  YS02001622           JUNCTION     1.13     1.53     8.43     0  03:44        1.50
  YS02001633           JUNCTION     1.55     1.95     8.40     0  03:47        1.93
  YS02001649           JUNCTION     1.60     2.00     8.39     0  04:43        1.98
  YS02001757           JUNCTION     1.72     2.12     8.38     0  04:41        2.11
  YS02001895           JUNCTION     0.32     0.55     7.30     0  02:50        0.55
  YS02001625           JUNCTION     1.41     1.78     8.38     0  03:37        1.78
  YS02163301           JUNCTION     1.49     1.88     8.40     0  03:47        1.87
  YS02163601           JUNCTION     1.60     2.00     8.39     0  03:47        1.97
  YS02164001           JUNCTION     1.54     1.93     8.38     0  03:47        1.91
  YS02001647           JUNCTION     1.40     1.76     8.37     0  04:41        1.75
  YSB1154              JUNCTION     0.25     0.44     9.50     0  02:13        0.44
  YSB6556              JUNCTION     0.14     0.33     9.50     0  02:12        0.33
  YSB1174              JUNCTION     0.20     0.39     9.50     0  02:13        0.39
  YSB1171              JUNCTION     0.40     0.60     9.50     0  02:13        0.60
  YS02006553           JUNCTION     0.75     1.04     7.32     0  02:45        1.03
  YS02006561           JUNCTION     0.17     0.33     6.99     0  02:43        0.31
  YS02006556           JUNCTION     0.72     0.98     7.29     0  02:45        0.98
  YS02006558           JUNCTION     0.77     1.03     7.29     0  02:45        1.02
  YS02001783           JUNCTION     0.35     1.11     7.25     0  02:43        0.83
  YS02001784           JUNCTION     0.39     1.35     7.42     0  02:43        0.87
  YS02001786           JUNCTION     0.36     1.33     7.36     0  02:43        0.85
  YS02001788           JUNCTION     0.32     1.21     7.19     0  02:43        0.84
  YS02001790           JUNCTION     0.45     1.96     7.60     0  02:41        1.10
  YS02001791           JUNCTION     0.45     2.72     8.19     0  02:41        1.19
  YS02001793           JUNCTION     0.65     3.00     7.83     0  02:39        1.78
  WS02004139           JUNCTION     0.59     0.66     5.57     0  02:30        0.66
  WSC                  OUTFALL      0.29     0.38     1.05     0  02:34        0.38
  3                    OUTFALL      0.09     0.23     6.23     0  00:00        0.19
  4                    OUTFALL      0.00     0.05     7.05     0  02:26        0.05
  5                    OUTFALL      0.00     0.00     5.00     0  00:00        0.00
  JK-storage           STORAGE      2.50     5.80     6.60     0  02:42        5.80
  CC-storage           STORAGE      0.96     1.37     8.37     0  05:44        1.37
  XR-storage           STORAGE      6.78     7.72     5.72     0  03:02        7.72
  
  
  *******************
  Node Inflow Summary
  *******************
  
  -------------------------------------------------------------------------------------------------
                                  Maximum  Maximum                  Lateral       Total        Flow
                                  Lateral    Total  Time of Max      Inflow      Inflow     Balance
                                   Inflow   Inflow   Occurrence      Volume      Volume       Error
  Node                 Type           LPS      LPS  days hr:min    10^6 ltr    10^6 ltr     Percent
  -------------------------------------------------------------------------------------------------
  WS02001211           JUNCTION      7.35   292.87     0  03:36       0.207        6.71       0.433
  WS02001212           JUNCTION      0.00   293.10     0  03:36           0        6.68       0.241
  WS02001213           JUNCTION      0.00   293.32     0  03:36           0        6.66       0.288
  WS02003069           JUNCTION      0.32   889.64     0  02:32     0.00902        13.3       0.156
  WS02003072           JUNCTION      0.00   889.61     0  02:32           0        13.2       0.207
  WS02003073           JUNCTION      1.82   891.40     0  02:33      0.0514        13.3       0.219
  WS02003060           JUNCTION     16.53   889.34     0  02:31       0.466        13.3       0.151
  WS02003066           JUNCTION      0.00   589.76     0  02:29           0         6.2       0.050
  WS02003059           JUNCTION      0.00   293.73     0  03:35           0        6.65       0.458
  WS02003067           JUNCTION      0.00   589.61     0  02:29           0         6.2       0.113
  WS02004401           JUNCTION      0.00   594.18     0  02:25           0        6.38       0.257
  WS02004402           JUNCTION      0.00   593.71     0  02:26           0        6.36       0.250
  WS02004403           JUNCTION      0.00   593.43     0  02:26           0        6.35       0.233
  WS02004404           JUNCTION      0.16   593.64     0  02:27     0.00457        6.34       0.181
  WS02004406           JUNCTION      0.00   593.47     0  02:27           0        6.31       0.444
  WS02004409           JUNCTION      0.00   593.32     0  02:27           0        6.28       0.162
  WS02004410           JUNCTION      0.00   591.85     0  02:27           0        6.27       0.193
  WS02004411           JUNCTION      0.00   590.78     0  02:28           0        6.25       0.207
  WS02004412           JUNCTION      0.00   590.10     0  02:28           0        6.24       0.236
  WS02004413           JUNCTION      0.00   589.77     0  02:28           0        6.23       0.368
  WS02004405           JUNCTION      0.04   593.74     0  02:26     0.00107        6.33       0.275
  WS02006109           JUNCTION      1.23   589.41     0  02:23      0.0347        6.43       0.286
  WS02006110           JUNCTION      0.00   589.40     0  02:23           0        6.42       0.238
  WS02006111           JUNCTION      0.00   617.34     0  02:23           0         6.4       0.043
  WS02006112           JUNCTION     15.03   604.53     0  02:23      0.0369        6.43       0.356
  WS02006113           JUNCTION      0.00   590.17     0  02:23           0         6.4       0.096
  WS02006115           JUNCTION      0.00   610.54     0  02:22           0        6.41       0.219
  WS02006116           JUNCTION      0.00   596.30     0  02:24           0        6.39       0.219
  WS02006230           JUNCTION     10.28   336.22     0  02:57        0.29        5.25       0.241
  WS02006231           JUNCTION      0.00   325.18     0  02:57           0        4.96       0.070
  WS02006232           JUNCTION      0.00   325.12     0  02:57           0        4.97       0.250
  WS02006234           JUNCTION      0.00   324.63     0  02:56           0        4.98       0.073
  WS02006235           JUNCTION      0.00   324.35     0  02:56           0        5.01       0.164
  WS02006238           JUNCTION      0.00   283.84     0  02:40           0        2.65       0.178
  WS02006240           JUNCTION      0.00   272.91     0  02:40           0        2.63       0.188
  WS02006242           JUNCTION      0.00   267.33     0  02:41           0        2.63       0.215
  WS02006243           JUNCTION      0.00   259.06     0  02:41           0        2.63      -0.049
  WS02006245           JUNCTION      0.00   254.21     0  02:41           0        2.63       0.086
  WS02006247           JUNCTION      0.00   257.30     0  02:18           0        2.63       0.006
  WS02006248           JUNCTION      0.00   260.08     0  02:18           0        2.63      -0.020
  WS02006249           JUNCTION      0.00   262.85     0  02:18           0        2.64       0.044
  WS02006239           JUNCTION      0.00   279.44     0  02:40           0        2.64       0.227
  WS02006251           JUNCTION      0.08   265.17     0  02:17     0.00217        2.64       0.002
  WS02006252           JUNCTION      0.00   200.00     0  02:50           0        2.43       0.003
  WS02006253           JUNCTION      2.28    67.60     0  02:14     0.00477       0.211      -0.237
  WS02006256           JUNCTION      0.00   600.00     0  00:00           0         5.2       0.046
  WS02004138           JUNCTION      0.00   285.00     0  00:00           0        6.53       0.066
  WS02004407           JUNCTION      0.00   593.38     0  02:27           0        6.28       0.076
  WS02006228           JUNCTION      0.00   588.18     0  02:23           0        6.41       0.190
  WS02006229           JUNCTION      0.00   588.09     0  02:23           0        6.43       0.163
  WS02006280           JUNCTION      0.00   336.68     0  02:14           0        1.19       0.006
  WS02006284           JUNCTION      0.10   336.63     0  02:14      0.0027        1.19       0.095
  WS02006287           JUNCTION      0.00   336.52     0  02:14           0        1.19       0.061
  WSF200               JUNCTION      0.00   589.83     0  02:29           0        6.19       0.038
  HS02004901           JUNCTION     18.58    18.58     0  02:08      0.0444      0.0445       4.109
  HS02004881           JUNCTION      7.53    65.87     0  02:14      0.0194       0.207       0.204
  HS02004876           JUNCTION     12.01    59.05     0  02:14      0.0372       0.188       0.285
  HS02004870           JUNCTION     13.30    47.28     0  02:14      0.0367       0.151       0.070
  HS02004862           JUNCTION     10.82    34.86     0  02:14      0.0424       0.114       0.149
  HS02004856           JUNCTION      9.86    24.13     0  02:14      0.0276      0.0735       2.004
  HS02004852           JUNCTION      0.00    14.89     0  02:14           0      0.0459       0.114
  HS02004848           JUNCTION     21.84    21.84     0  02:16      0.0879      0.0879       0.050
  HS02004842           JUNCTION      0.00     7.81     0  02:26           0       0.055      30.930
  HS02004837           JUNCTION     27.68    33.96     0  02:13       0.243       0.285       0.286
  HS02004830           JUNCTION      0.15    34.09     0  02:14     0.00423       0.275       0.450
  HS02004824           JUNCTION     24.54    58.34     0  02:17       0.115       0.389       0.138
  HS02004817           JUNCTION      0.60    58.92     0  02:17      0.0169       0.406       4.286
  HS02004807           JUNCTION     25.01    81.76     0  02:15      0.0674       0.456       0.934
  HS02004802           JUNCTION      0.00    82.40     0  02:16           0       0.452       0.905
  HS02004799           JUNCTION     19.27   217.41     0  02:12      0.0546        0.64       0.357
  HS02004792           JUNCTION     85.88   198.47     0  02:11       0.235       0.586       0.068
  HS02004788           JUNCTION     27.80   115.35     0  02:12       0.123       0.352       0.109
  HS02004785           JUNCTION      0.15    87.96     0  02:11     0.00423       0.231       0.210
  HS02004777           JUNCTION      0.03    88.41     0  02:10    0.000846       0.232       2.287
  HS02004770           JUNCTION     72.88    89.88     0  02:09        0.19       0.232       1.348
  HS02004480           JUNCTION      0.00   256.47     0  02:13           0       0.752       0.103
  HS02004479           JUNCTION      0.00    39.94     0  02:14           0       0.124       0.594
  HS02004478           JUNCTION      0.00   336.50     0  02:14           0        1.19       0.051
  YS02001745           JUNCTION    124.63   245.85     0  03:29        1.26        1.29       0.909
  YS02001748           JUNCTION      0.04   331.59     0  03:28     0.00127        1.28       1.765
  YS02001751           JUNCTION      0.01   357.82     0  03:10     0.00031        1.23       1.907
  YS02001754           JUNCTION      0.26   211.57     0  02:27     0.00733        1.21       2.014
  YS02001762           JUNCTION      0.00   183.94     0  02:53           0        1.38       1.530
  YS02001765           JUNCTION      0.00   184.35     0  02:53           0        1.38       1.782
  YS02001767           JUNCTION      0.54   183.71     0  02:28      0.0151        1.39       2.615
  YS02001770           JUNCTION    159.80   194.40     0  02:25        1.45        1.46       2.155
  YS02001774           JUNCTION      0.00    65.25     0  02:11           0      0.0716      53.097
  YS02001779           JUNCTION      0.01    48.65     0  02:24    0.000141      0.0313      87.731
  YS02001882           JUNCTION      0.00    10.10     0  02:48           0        0.01      22.972
  YS02001884           JUNCTION      0.00    17.99     0  02:04           0      0.0341      18.323
  YS02001759           JUNCTION    156.22   339.66     0  02:53        1.34        2.68       0.848
  YS02001887           JUNCTION    205.33   210.63     0  02:38        1.58         1.6       0.478
  YS02001890           JUNCTION      0.00   211.12     0  02:41           0        1.56       0.533
  YS02001898           JUNCTION      0.00   216.05     0  02:44           0        1.55       0.164
  YS02001901           JUNCTION      0.00   215.96     0  02:40           0        1.55       0.385
  YS02001904           JUNCTION      0.00   222.98     0  02:51           0        1.55       0.357
  YS02001907           JUNCTION      0.00   407.11     0  02:53           0        3.36       0.681
  YS02001910           JUNCTION      0.00   186.41     0  02:52           0        1.82       0.591
  YS02001915           JUNCTION    111.48   176.01     0  02:52        1.07        1.83       0.278
  YS02001918           JUNCTION      0.00    60.08     0  03:00           0       0.758       0.184
  YS02001619           JUNCTION    108.45   108.45     0  02:49        1.06        1.06       1.135
  YS02001629           JUNCTION      0.00   206.58     0  03:08           0       0.984       2.956
  YS02001641           JUNCTION      0.00   273.56     0  02:30           0        2.13       0.987
  YS02001644           JUNCTION    118.43   386.96     0  02:30        1.21        4.07       0.636
  YS02001652           JUNCTION      0.00   224.05     0  02:27           0        1.11       2.081
  YS02001655           JUNCTION      0.15   399.79     0  02:53     0.00434        1.13       2.075
  YS02001920           JUNCTION      2.87    56.87     0  03:01      0.0809       0.761       0.311
  YS02001923           JUNCTION      0.04    54.00     0  03:01     0.00106        0.68       0.056
  YS02001926           JUNCTION      0.05    54.02     0  03:01     0.00147       0.682       0.386
  YS02001929           JUNCTION     53.99    53.99     0  03:01       0.681       0.681       0.054
  YS02001658           JUNCTION      0.00   463.81     0  03:30           0        1.24       1.590
  YS02001661           JUNCTION      0.00   384.48     0  04:20           0        1.76       0.876
  YS02001664           JUNCTION    145.76   343.51     0  04:19        1.17        1.67       0.380
  YS02001622           JUNCTION      0.00   152.92     0  02:57           0        1.05       3.113
  YS02001633           JUNCTION    120.36   269.99     0  02:29        1.25        2.19       1.471
  YS02001649           JUNCTION      0.00   560.29     0  02:28           0        3.97       0.931
  YS02001757           JUNCTION      0.00   994.20     0  02:28           0        7.04       1.322
  YS02001895           JUNCTION      0.00   212.62     0  02:44           0        1.56       0.269
  YS02001625           JUNCTION      0.00   207.20     0  03:08           0        1.02       4.003
  YS02163301           JUNCTION      0.00   160.80     0  02:29           0       0.973       2.489
  YS02163601           JUNCTION      0.11   270.98     0  02:29      0.0031        2.14       1.405
  YS02164001           JUNCTION      0.00   270.34     0  02:29           0        2.12       0.925
  YS02001647           JUNCTION      0.00   389.80     0  02:30           0        3.06       0.903
  YSB1154              JUNCTION     21.36    21.36     0  02:12      0.0662      0.0675       2.182
  YSB6556              JUNCTION      0.00    21.33     0  02:12           0      0.0685       1.856
  YSB1174              JUNCTION     21.13    21.13     0  02:07      0.0481      0.0491       2.680
  YSB1171              JUNCTION      0.00    39.84     0  02:12           0       0.123       5.411
  YS02006553           JUNCTION      0.00   399.50     0  02:48           0        3.35       0.438
  YS02006561           JUNCTION      0.00   601.65     0  02:48           0        4.74      -0.006
  YS02006556           JUNCTION      0.00   393.45     0  02:56           0        3.36       0.318
  YS02006558           JUNCTION    173.54   573.29     0  02:45        1.44        4.77       0.119
  YS02001783           JUNCTION      0.00   579.27     0  02:43           0        4.74       0.037
  YS02001784           JUNCTION      1.06   583.34     0  02:43      0.0299        4.76       0.059
  YS02001786           JUNCTION      0.06   584.20     0  02:43     0.00159        4.76       0.057
  YS02001788           JUNCTION      0.07   582.79     0  02:43       0.002        4.76       0.034
  YS02001790           JUNCTION      0.15   595.01     0  02:44     0.00437        4.77       0.040
  YS02001791           JUNCTION      0.00   595.20     0  02:44           0        4.76       0.019
  YS02001793           JUNCTION      0.00   626.02     0  02:39           0        4.76       0.008
  WS02004139           JUNCTION      0.32   290.33     0  00:00     0.00905        6.53       0.500
  WSC                  OUTFALL       0.00   891.35     0  02:34           0        13.2       0.000
  3                    OUTFALL       0.00   597.65     0  00:00           0        2.81       0.000
  4                    OUTFALL       0.00    22.72     0  02:26           0      0.0128       0.000
  5                    OUTFALL       0.00     0.00     0  00:00           0           0       0.000 ltr
  JK-storage           STORAGE       0.00   795.51     0  02:38           0        4.91     -15.845
  CC-storage           STORAGE       0.00   994.62     0  02:28           0        6.33       1.036
  XR-storage           STORAGE     401.86   401.86     0  02:45        7.76        8.36      -0.000
  
  
  **********************
  Node Surcharge Summary
  **********************
  
  Surcharging occurs when water rises above the top of the highest conduit.
  ---------------------------------------------------------------------
                                               Max. Height   Min. Depth
                                   Hours       Above Crown    Below Rim
  Node                 Type      Surcharged         Meters       Meters
  ---------------------------------------------------------------------
  WS02004404           JUNCTION        0.04          0.002        2.778
  WS02006109           JUNCTION        1.12          0.209        1.611
  WS02006110           JUNCTION        0.35          0.049        1.801
  WS02006112           JUNCTION        0.55          0.142        1.538
  WS02006231           JUNCTION        0.15          0.026        1.504
  WS02006232           JUNCTION        0.83          0.155        1.325
  WS02006234           JUNCTION        0.27          0.059        1.181
  WS02006235           JUNCTION        0.33          0.090        1.200
  WS02006238           JUNCTION        0.35          0.105        1.325
  WS02006240           JUNCTION        0.13          0.015        1.375
  WS02006242           JUNCTION        0.25          0.048        0.772
  WS02006239           JUNCTION        0.24          0.045        1.245
  WS02006256           JUNCTION        0.01          1.050        0.000
  WS02006228           JUNCTION        1.10          0.252        1.948
  YS02001748           JUNCTION        3.93          0.211        0.979
  YS02001751           JUNCTION        4.51          1.024        0.176
  YS02001754           JUNCTION        5.17          1.014        0.136
  YS02001762           JUNCTION        5.48          0.982        0.168
  YS02001765           JUNCTION        5.46          0.931        0.169
  YS02001767           JUNCTION        5.42          0.891        0.139
  YS02001770           JUNCTION        5.33          0.853        0.067
  YS02001774           JUNCTION        5.48          0.957        0.093
  YS02001779           JUNCTION        5.09          0.680        0.000
  YS02001759           JUNCTION        5.49          1.015        0.195
  YS02001619           JUNCTION        4.42          0.556        0.054
  YS02001629           JUNCTION        4.45          0.469        0.001
  YS02001641           JUNCTION        5.46          0.935        0.165
  YS02001644           JUNCTION        5.46          0.920        0.000
  YS02001652           JUNCTION        5.24          0.973        0.157
  YS02001655           JUNCTION        4.59          1.123        0.077
  YS02001658           JUNCTION        3.94          0.996        0.304
  YS02001622           JUNCTION        4.51          0.527        0.093
  YS02001633           JUNCTION        5.44          0.929        0.131
  YS02001649           JUNCTION        5.48          0.996        0.054
  YS02001757           JUNCTION        5.53          1.117        0.093
  YS02001625           JUNCTION        5.26          0.780        0.000
  YS02163301           JUNCTION        5.38          0.885        0.145
  YS02163601           JUNCTION        5.47          0.997        0.083
  YS02164001           JUNCTION        5.45          0.926        0.174
  YS02001647           JUNCTION        5.25          0.760        0.140
  YS02006553           JUNCTION        0.07          0.037        1.153
  YS02001783           JUNCTION        0.02          0.307        1.293
  YS02001784           JUNCTION        0.02          0.554        0.936
  YS02001786           JUNCTION        0.02          0.530        0.900
  YS02001788           JUNCTION        0.01          0.413        1.067
  YS02001790           JUNCTION        1.50          1.157        0.000
  YS02001791           JUNCTION        1.63          1.920        0.000
  YS02001793           JUNCTION        1.83          2.000        0.600
  
  
  *********************
  Node Flooding Summary
  *********************
  
  Flooding refers to all water that overflows a node, whether it ponds or not.
  --------------------------------------------------------------------------
                                                             Total   Maximum
                                 Maximum   Time of Max       Flood    Ponded
                        Hours       Rate    Occurrence      Volume     Depth
  Node                 Flooded       LPS   days hr:min    10^6 ltr    Meters
  --------------------------------------------------------------------------
  WS02006256              0.01    406.11      0  00:00       0.001     0.000
  YS02001779              0.83      4.35      0  05:44       0.003     0.000
  YS02001644              3.41    315.02      0  05:50       1.736     0.000
  YS02001625              0.04      9.04      0  03:41       0.000     0.000
  YS02001790              0.01    212.73      0  02:41       0.000     0.000
  YS02001791              0.01    199.56      0  02:41       0.000     0.000
  JK-storage              1.21    473.32      0  02:44       0.645     0.000
  XR-storage              4.13    300.65      0  03:02       0.907     0.000
  
  
  **********************
  Storage Volume Summary
  **********************
  
  --------------------------------------------------------------------------------------------------
                         Average     Avg  Evap Exfil       Maximum     Max    Time of Max    Maximum
                          Volume    Pcnt  Pcnt  Pcnt        Volume    Pcnt     Occurrence    Outflow
  Storage Unit           1000 m3    Full  Loss  Loss       1000 m3    Full    days hr:min        LPS
  --------------------------------------------------------------------------------------------------
  JK-storage               0.126      43     0     0         0.291     100       0  02:42     600.00
  CC-storage               2.687      17     0     0         3.809      24       0  05:44     200.00
  XR-storage               0.814      88     0     0         0.926     100       0  03:02     285.00
  
  
  ***********************
  Outfall Loading Summary
  ***********************
  
  -----------------------------------------------------------
                         Flow       Avg       Max       Total
                         Freq      Flow      Flow      Volume
  Outfall Node           Pcnt       LPS       LPS    10^6 ltr
  -----------------------------------------------------------
  WSC                   99.99    539.42    891.35      13.232
  3                     93.04    152.18    597.65       2.810
  4                      6.09     11.23     22.72       0.013
  5                      0.00      0.00      0.00       0.000
  -----------------------------------------------------------
  System                49.78    702.83   1113.24      16.056
  
  
  ********************
  Link Flow Summary
  ********************
  
  -----------------------------------------------------------------------------
                                 Maximum  Time of Max   Maximum    Max/    Max/
                                  |Flow|   Occurrence   |Veloc|    Full    Full
  Link                 Type          LPS  days hr:min     m/sec    Flow   Depth
  -----------------------------------------------------------------------------
  WS02003066WSF200     CONDUIT    589.83     0  02:29      2.75    0.10    0.24
  WS02006287WS02006284 CONDUIT    336.53     0  02:14      1.91    0.16    0.28
  WS02006284WS02006280 CONDUIT    336.68     0  02:14      2.15    0.14    0.25
  WS02006280WS02006229 CONDUIT    336.68     0  02:14      3.46    0.07    0.18
  WS02006229WS02006228 CONDUIT    588.18     0  02:23      1.17    1.95    1.00
  WS02006256WS02006235 CONDUIT    177.52     0  00:01      2.73    1.88    1.00
  WS02006253WS02006251 CONDUIT     67.38     0  02:11      0.59    0.20    0.75
  WS02006252WS02006251 CONDUIT    200.98     0  02:14      1.97    0.74    0.76
  WS02006251WS02006249 CONDUIT    262.85     0  02:18      1.02    0.76    0.76
  WS02006249WS02006248 CONDUIT    260.08     0  02:18      1.10    1.42    0.76
  WS02006248WS02006247 CONDUIT    257.30     0  02:18      1.07    0.56    0.81
  WS02006247WS02006245 CONDUIT    254.21     0  02:41      1.01    2.02    0.86
  WS02006245WS02006243 CONDUIT    259.06     0  02:41      1.01    0.77    0.89
  WS02006243WS02006242 CONDUIT    267.33     0  02:41      0.80    0.57    0.97
  WS02006242WS02006240 CONDUIT    272.91     0  02:40      0.75    1.08    1.00
  WS02006240WS02006239 CONDUIT    279.44     0  02:40      0.78    0.88    1.00
  WS02006239WS02006238 CONDUIT    283.84     0  02:40      0.75    0.91    1.00
  WS02006238WS02006235 CONDUIT    285.84     0  02:40      1.32    0.64    1.00
  WS02006235WS02006234 CONDUIT    324.63     0  02:56      0.94    3.42    1.00
  WS02006234WS02006232 CONDUIT    325.12     0  02:57      1.17    0.66    1.00
  WS02006232WS02006231 CONDUIT    325.18     0  02:57      0.94    0.68    1.00
  WS02006231WS02006230 CONDUIT    325.94     0  02:57      1.29    4.94    1.00
  WS02006230WS02006229 CONDUIT    337.26     0  02:57      0.88    7.51    1.00
  WS02006228WS02006109 CONDUIT    588.18     0  02:23      1.17    2.57    1.00
  WS02006116WS02004401 CONDUIT    594.18     0  02:25      0.81    0.82    0.89
  WS02006115WS02006116 CONDUIT    596.30     0  02:24      0.91    0.77    0.81
  WS02006113WS02006111 CONDUIT    617.34     0  02:23      2.54    0.74    0.49
  WS02006112WS02006115 CONDUIT    610.54     0  02:22      0.83    0.36    0.90
  WS02006111WS02006112 CONDUIT    595.02     0  02:23      1.63    0.28    0.68
  WS02006110WS02006113 CONDUIT    590.17     0  02:23      1.37    0.54    0.80
  WS02006109WS02006110 CONDUIT    589.40     0  02:23      1.17    1.13    1.00
  WS02004411WS02004412 CONDUIT    590.10     0  02:28      0.97    0.84    0.72
  WS02004401WS02004402 CONDUIT    593.71     0  02:26      0.79    0.71    0.91
  WS02004413WS02003067 CONDUIT    589.61     0  02:29      1.17    0.25    0.61
  WS02004412WS02004413 CONDUIT    589.77     0  02:28      0.87    0.39    0.80
  WS02004410WS02004411 CONDUIT    590.78     0  02:28      0.98    0.81    0.72
  WS02004409WS02004410 CONDUIT    591.85     0  02:27      1.01    0.77    0.71
  WS02004407WS02004409 CONDUIT    593.32     0  02:27      1.53    0.21    0.51
  WS02004406WS02004407 CONDUIT    593.38     0  02:27      1.10    0.27    0.65
  WS02004405WS02004406 CONDUIT    593.47     0  02:27      0.76    1.17    0.99
  WS02004404WS02004405 CONDUIT    593.70     0  02:26      0.76    5.82    1.00
  WS02004403WS02004404 CONDUIT    593.48     0  02:27      0.76    0.43    0.97
  WS02004402WS02004403 CONDUIT    593.43     0  02:26      0.78    0.85    0.93
  WS02004139WS02001211 CONDUIT    285.52     0  03:36      0.80    0.36    0.54
  WS02004138WS02004139 CONDUIT    290.01     0  00:00      3.34    0.06    0.39
  WS02003067WS02003066 CONDUIT    589.76     0  02:29      1.27    0.19    0.43
  WS02001213WS02003059 CONDUIT    293.73     0  03:35      0.80    0.48    0.73
  WS02001212WS02001213 CONDUIT    293.32     0  03:36      1.19    0.45    0.42
  WS02001211WS02001212 CONDUIT    293.10     0  03:36      0.67    0.22    0.59
  WS02003072WS02003073 CONDUIT    889.58     0  02:33      1.69    1.92    0.47
  WS02003069WS02003072 CONDUIT    889.61     0  02:32      1.59    0.43    0.49
  WS02003060WS02003069 CONDUIT    889.32     0  02:32      1.84    0.35    0.44
  WS02003059WS02003060 CONDUIT    294.30     0  03:35      0.82    0.19    0.64
  HS02004901HS02004770 CONDUIT     17.39     0  02:11      0.06    0.07    0.39
  HS02004876HS02004881 CONDUIT     59.04     0  02:14      0.84    0.63    0.10
  HS02004870HS02004876 CONDUIT     47.25     0  02:14      0.57    0.03    0.12
  HS02004842HS02004848 CONDUIT      7.81     0  02:26      0.04    0.00    0.29
  HS02004837HS02004842 CONDUIT      8.13     0  02:26      0.41    0.00    0.31
  HS02004830HS02004837 CONDUIT     33.94     0  02:14      0.51    0.03    0.09
  HS02004824HS02004830 CONDUIT     34.08     0  02:15      0.55    0.04    0.09
  HS02004817HS02004824 CONDUIT     58.32     0  02:17      0.19    0.03    0.44
  HS02004770HS02004777 CONDUIT     88.38     0  02:10      0.32    0.16    0.40
  HS02004799HS02004480 CONDUIT    217.06     0  02:12      0.76    0.27    0.41
  HS02004792HS02004799 CONDUIT    198.36     0  02:12      0.87    0.12    0.33
  HS02004788HS02004792 CONDUIT    115.24     0  02:12      1.00    0.08    0.17
  HS02004785HS02004788 CONDUIT     87.85     0  02:12      0.66    0.66    0.19
  HS02004777HS02004785 CONDUIT     87.81     0  02:11      0.38    0.11    0.33
  HS02004480HS02004478 CONDUIT    256.43     0  02:13      1.18    1.08    0.31
  HS02004479HS02004480 CONDUIT     40.30     0  02:14      0.16    0.04    0.39
  HS02004862HS02004870 CONDUIT     34.82     0  02:15      0.58    0.04    0.09
  HS02004848HS02004852 CONDUIT     14.89     0  02:14      0.39    0.02    0.05
  HS02004856HS02004862 CONDUIT     24.08     0  02:14      0.43    0.02    0.08
  HS02004852HS02004856 CONDUIT     14.84     0  02:15      0.19    0.02    0.11
  HS02004802HS02004478 CONDUIT     83.16     0  02:17      0.38    0.07    0.32
  HS02004478WS02006287 CONDUIT    336.52     0  02:14      1.61    0.09    0.23
  HS02004817HS02004807 CONDUIT     59.99     0  02:18      0.15    0.04    0.59
  HS02004807HS02004802 CONDUIT     82.40     0  02:16      0.32    0.16    0.37
  YS02001759YS02001757 CONDUIT    341.78     0  02:53      0.44    0.24    1.00
  YS02001762YS02001759 CONDUIT    187.02     0  02:53      0.24    0.22    1.00
  YS02001765YS02001762 CONDUIT    183.94     0  02:53      0.23    0.17    1.00
  YS02001770YS02001767 CONDUIT    183.17     0  02:28      0.34    0.73    1.00
  YS02001774YS02001770 CONDUIT     65.25     0  02:11      0.15    0.04    1.00
  YS02001779YS02001774 CONDUIT     48.64     0  02:24      0.10    0.02    1.00
  YS02001649YS02001757 CONDUIT    557.47     0  02:28      0.71    0.34    1.00
  YS02001767YS02001765 CONDUIT    184.35     0  02:53      0.26    0.23    1.00
  YS02006561YS02001783 CONDUIT    579.27     0  02:43      2.07    0.30    0.71
  YS02001783YS02001784 CONDUIT    582.28     0  02:43      1.50    0.80    1.00
  YS02001784YS02001785 CONDUIT    584.14     0  02:43      1.60    1.36    1.00
  YS02001788YS02001790 CONDUIT    594.85     0  02:44      2.14    0.44    1.00
  YS02001790YS02001791 CONDUIT    595.20     0  02:44      2.54    0.65    1.00
  YS02001791YS02001793 CONDUIT    626.02     0  02:39      5.17    0.27    1.00
  YS02001910YS02001907 CONDUIT    185.50     0  02:53      0.49    0.10    0.89
  YS02001786YS02001788 CONDUIT    582.72     0  02:43      2.06    1.12    1.00
  YS02001915YS02001910 CONDUIT    186.41     0  02:52      0.45    0.09    0.68
  YS02001918YS02001915 CONDUIT     64.81     0  02:52      0.44    0.04    0.40
  YS02001923YS02001920 CONDUIT     54.00     0  03:01      0.54    0.02    0.20
  YS02001926YS02001923 CONDUIT     53.96     0  03:01      0.61    0.08    0.17
  YS02001929YS02001926 CONDUIT     53.97     0  03:01      0.66    0.03    0.16
  YS02001920YS02001918 CONDUIT     60.08     0  03:00      0.55    0.06    0.26
  YS02001629YS02163301 CONDUIT    160.80     0  02:29      0.21    0.20    1.00
  YS02001619YS02001622 CONDUIT    152.92     0  02:57      0.77    0.23    1.00
  YS02001622YS02001625 CONDUIT    207.20     0  03:08      0.32    0.11    1.00
  YS02001625YS02001629 CONDUIT    206.58     0  03:08      0.32    0.10    1.00
  YS02163301YS02001633 CONDUIT    160.29     0  02:29      0.20    0.15    1.00
  YS02163601YS02164001 CONDUIT    270.34     0  02:29      0.34    0.24    1.00
  YS02164001YS02001641 CONDUIT    273.56     0  02:30      0.35    0.37    1.00
  YS02001641YS02001644 CONDUIT    277.55     0  02:30      0.35    0.90    1.00
  YS02001647YS02001649 CONDUIT    407.49     0  02:29      0.53    0.22    1.00
  YS02006553YS02006556 CONDUIT    393.45     0  02:56      0.51    0.34    0.97
  YS02006556YS02006558 CONDUIT    403.09     0  02:57      0.52    0.32    0.99
  YSB6556YSB1171       CONDUIT     21.80     0  02:15      0.08    0.02    0.66
  YS02001907YS02006553 CONDUIT    399.50     0  02:48      0.44    0.47    1.00
  YS02006558YS02006561 CONDUIT    601.65     0  02:48      3.01    1.33    0.69
  YS02001633YS02163601 CONDUIT    270.87     0  02:29      0.34    0.28    1.00
  YS02001644YS02001647 CONDUIT    389.80     0  02:30      0.51    0.23    1.00
  YS02001745YS02001748 CONDUIT    331.55     0  03:28      1.58    0.13    0.92
  YS02001748YS02001751 CONDUIT    357.81     0  03:10      1.23    0.18    1.00
  YS02001751YS02001754 CONDUIT    211.31     0  02:27      1.07    0.10    1.00
  YS02001754YS02001757 CONDUIT    202.38     0  03:09      0.33    0.08    1.00
  YS02001882YS02001884 CONDUIT     11.61     0  02:49      0.06    0.01    0.62
  YS02001884YS02001887 CONDUIT     17.99     0  02:04      0.07    0.02    0.71
  YS02001890YS02001895 CONDUIT    212.62     0  02:44      0.38    0.10    0.68
  YS02001895YS02001898 CONDUIT    216.05     0  02:44      0.53    0.37    0.54
  YS02001898YS02001901 CONDUIT    215.96     0  02:40      0.43    0.14    0.62
  YS02001901YS02001904 CONDUIT    222.98     0  02:51      0.40    0.35    0.67
  YS02001904YS02001907 CONDUIT    228.80     0  02:41      0.33    0.08    0.83
  YS02001887YS02001890 CONDUIT    211.12     0  02:41      0.33    0.36    0.76
  YS02001652YS02001649 CONDUIT    210.09     0  02:51      0.38    0.10    1.00
  YS02001655YS02001652 CONDUIT    224.05     0  02:27      1.14    0.11    1.00
  YS02001658YS02001655 CONDUIT    399.64     0  02:53      1.42    0.17    1.00
  YS02001661YS02001658 CONDUIT    463.81     0  03:30      1.65    0.18    0.99
  YS02001664YS02001661 CONDUIT    384.48     0  04:20      1.41    0.12    0.70
  YSB1154YSB6556       CONDUIT     21.33     0  02:12      0.19    0.04    0.55
  YSB1174YSB1171       CONDUIT     19.56     0  02:09      0.08    0.03    0.67
  YSB1171HS02004479    CONDUIT     39.94     0  02:14      0.54    0.03    0.52
  HS02004881HS02006253 CONDUIT     65.86     0  02:14      2.04    0.01    0.17
  YS02001793JiankangQianchi CONDUIT    795.51     0  02:38     13.73    0.06    1.00
  YS02001757CaochengTiaoxuchi CONDUIT    994.62     0  02:28      2.26    0.44    1.00
  WSF200WS02003060     CONDUIT    590.13     0  02:29      1.82    0.13    0.34
  1                    CONDUIT    891.35     0  02:34      3.23    0.31    0.38
  2                    CONDUIT     22.72     0  02:26      3.16    0.05    0.16
  3                    CONDUIT    597.65     0  00:00     10.05    0.95    0.86
  4                    CONDUIT      0.00     0  00:00      0.00    0.00    0.00
  CC-Pump-1            PUMP       200.00     0  02:14              1.00
  CC-Pump-2            PUMP       200.00     0  03:00              1.00
  JK-Pump-1            PUMP       300.00     0  00:00              1.00
  JK-Pump-2            PUMP       300.00     0  00:00              1.00
  XR-Pump-1            PUMP        95.00     0  02:20              1.00
  XR-Pump-2            PUMP        95.00     0  00:00              1.00
  XR-Pump-3            PUMP        95.00     0  00:00              1.00
  XR-Pump-4            PUMP        95.00     0  00:00              1.00
  
  
  ***************************
  Flow Classification Summary
  ***************************
  
  -------------------------------------------------------------------------------------
                      Adjusted    ---------- Fraction of Time in Flow Class ---------- 
                       /Actual         Up    Down  Sub   Sup   Up    Down  Norm  Inlet 
  Conduit               Length    Dry  Dry   Dry   Crit  Crit  Crit  Crit  Ltd   Ctrl  
  -------------------------------------------------------------------------------------
  WS02003066WSF200        1.00   0.08  0.00  0.00  0.00  0.92  0.00  0.00  0.64  0.00
  WS02006287WS02006284    1.00   0.04  0.02  0.00  0.63  0.31  0.00  0.00  0.76  0.00
  WS02006284WS02006280    1.00   0.04  0.00  0.00  0.00  0.00  0.00  0.96  0.00  0.00
  WS02006280WS02006229    1.00   0.05  0.00  0.00  0.00  0.00  0.00  0.95  0.00  0.00
  WS02006229WS02006228    1.00   0.00  0.00  0.00  0.98  0.00  0.00  0.02  0.00  0.00
  WS02006256WS02006235    1.00   0.00  0.00  0.00  0.99  0.01  0.00  0.00  0.00  0.00
  WS02006253WS02006251    1.00   0.03  0.01  0.00  0.96  0.00  0.00  0.00  0.00  0.00
  WS02006252WS02006251    1.00   0.08  0.00  0.00  0.00  0.00  0.91  0.00  0.00  0.00
  WS02006251WS02006249    1.00   0.00  0.00  0.00  1.00  0.00  0.00  0.00  0.52  0.00
  WS02006249WS02006248    1.00   0.00  0.02  0.00  0.67  0.00  0.31  0.00  0.00  0.00
  WS02006248WS02006247    1.00   0.02  0.00  0.00  0.97  0.00  0.00  0.01  0.42  0.00
  WS02006247WS02006245    1.00   0.02  0.00  0.00  0.96  0.00  0.00  0.02  0.00  0.00
  WS02006245WS02006243    1.00   0.02  0.00  0.00  0.93  0.00  0.00  0.05  0.01  0.00
  WS02006243WS02006242    1.00   0.01  0.01  0.00  0.98  0.00  0.00  0.00  0.26  0.00
  WS02006242WS02006240    1.00   0.01  0.00  0.00  0.99  0.00  0.00  0.00  0.00  0.00
  WS02006240WS02006239    1.00   0.00  0.00  0.00  0.95  0.00  0.00  0.05  0.01  0.00
  WS02006239WS02006238    1.00   0.00  0.00  0.00  1.00  0.00  0.00  0.00  0.00  0.00
  WS02006238WS02006235    1.00   0.00  0.00  0.00  1.00  0.00  0.00  0.00  0.00  0.00
  WS02006235WS02006234    1.00   0.00  0.00  0.00  0.94  0.00  0.06  0.00  0.00  0.00
  WS02006234WS02006232    1.00   0.00  0.00  0.00  1.00  0.00  0.00  0.00  0.00  0.00
  WS02006232WS02006231    1.00   0.00  0.00  0.00  0.99  0.00  0.01  0.00  0.00  0.00
  WS02006231WS02006230    1.00   0.01  0.00  0.00  0.47  0.00  0.53  0.00  0.00  0.00
  WS02006230WS02006229    1.00   0.00  0.00  0.00  0.98  0.00  0.00  0.02  0.01  0.00
  WS02006228WS02006109    1.00   0.00  0.00  0.00  0.99  0.00  0.00  0.00  0.00  0.00
  WS02006116WS02004401    1.00   0.02  0.00  0.00  0.98  0.00  0.00  0.00  0.00  0.00
  WS02006115WS02006116    1.00   0.02  0.00  0.00  0.96  0.00  0.00  0.01  0.01  0.00
  WS02006113WS02006111    1.00   0.02  0.00  0.00  0.00  0.98  0.00  0.00  0.13  0.00
  WS02006112WS02006115    1.00   0.02  0.00  0.00  0.98  0.00  0.00  0.00  0.00  0.00
  WS02006111WS02006112    1.00   0.02  0.00  0.00  0.98  0.00  0.00  0.00  0.98  0.00
  WS02006110WS02006113    1.00   0.02  0.00  0.00  0.98  0.00  0.00  0.00  0.00  0.00
  WS02006109WS02006110    1.00   0.00  0.02  0.00  0.98  0.00  0.00  0.00  0.00  0.00
  WS02004411WS02004412    1.00   0.06  0.00  0.00  0.94  0.00  0.00  0.00  0.00  0.00
  WS02004401WS02004402    1.00   0.02  0.00  0.00  0.98  0.00  0.00  0.00  0.00  0.00
  WS02004413WS02003067    1.00   0.06  0.02  0.00  0.00  0.00  0.93  0.00  0.00  0.00
  WS02004412WS02004413    1.00   0.06  0.00  0.00  0.94  0.00  0.00  0.00  0.03  0.00
  WS02004410WS02004411    1.00   0.06  0.00  0.00  0.94  0.00  0.00  0.00  0.01  0.00
  WS02004409WS02004410    1.00   0.06  0.00  0.00  0.94  0.00  0.00  0.00  0.00  0.00
  WS02004407WS02004409    1.00   0.06  0.00  0.00  0.94  0.00  0.00  0.00  0.80  0.00
  WS02004406WS02004407    1.00   0.00  0.05  0.00  0.95  0.00  0.00  0.00  0.00  0.00
  WS02004405WS02004406    1.00   0.00  0.00  0.00  1.00  0.00  0.00  0.00  0.02  0.00
  WS02004404WS02004405    1.00   0.00  0.00  0.00  1.00  0.00  0.00  0.00  0.00  0.00
  WS02004403WS02004404    1.00   0.00  0.02  0.00  0.98  0.00  0.00  0.00  0.02  0.00
  WS02004402WS02004403    1.00   0.02  0.00  0.00  0.98  0.00  0.00  0.00  0.00  0.00
  WS02004139WS02001211    1.00   0.00  0.00  0.00  0.99  0.00  0.01  0.00  0.00  0.00
  WS02004138WS02004139    1.00   0.00  0.00  0.00  0.99  0.01  0.00  0.00  1.00  0.00
  WS02003067WS02003066    1.00   0.07  0.01  0.00  0.92  0.00  0.00  0.00  0.00  0.00
  WS02001213WS02003059    1.00   0.00  0.00  0.00  0.99  0.00  0.00  0.00  0.00  0.00
  WS02001212WS02001213    1.00   0.01  0.00  0.00  0.66  0.00  0.34  0.00  0.00  0.00
  WS02001211WS02001212    1.00   0.00  0.01  0.00  0.99  0.00  0.00  0.00  0.00  0.00
  WS02003072WS02003073    1.00   0.00  0.00  0.00  0.00  0.00  0.00  1.00  0.00  0.00
  WS02003069WS02003072    1.00   0.00  0.00  0.00  0.99  0.01  0.00  0.00  0.49  0.00
  WS02003060WS02003069    1.00   0.00  0.00  0.00  0.97  0.03  0.00  0.00  0.04  0.00
  WS02003059WS02003060    1.00   0.00  0.00  0.00  0.99  0.01  0.00  0.00  0.01  0.00
  HS02004901HS02004770    1.00   0.04  0.00  0.00  0.96  0.00  0.00  0.00  0.02  0.00
  HS02004876HS02004881    1.00   0.02  0.00  0.00  0.95  0.03  0.00  0.00  0.00  0.00
  HS02004870HS02004876    1.00   0.01  0.00  0.00  0.99  0.00  0.00  0.00  0.95  0.00
  HS02004842HS02004848    1.00   0.00  0.04  0.00  0.96  0.00  0.00  0.00  0.67  0.00
  HS02004837HS02004842    1.00   0.00  0.00  0.00  0.99  0.01  0.00  0.00  0.11  0.00
  HS02004830HS02004837    1.00   0.00  0.00  0.00  1.00  0.00  0.00  0.00  0.99  0.00
  HS02004824HS02004830    1.00   0.00  0.00  0.00  1.00  0.00  0.00  0.00  0.00  0.00
  HS02004817HS02004824    1.00   0.00  0.00  0.00  1.00  0.00  0.00  0.00  1.00  0.00
  HS02004770HS02004777    1.00   0.00  0.04  0.00  0.96  0.00  0.00  0.00  0.07  0.00
  HS02004799HS02004480    1.00   0.00  0.02  0.00  0.94  0.00  0.03  0.00  0.00  0.00
  HS02004792HS02004799    1.00   0.00  0.00  0.00  0.98  0.02  0.00  0.00  0.98  0.00
  HS02004788HS02004792    1.00   0.00  0.00  0.00  0.98  0.02  0.00  0.00  0.98  0.00
  HS02004785HS02004788    1.00   0.00  0.00  0.00  1.00  0.00  0.00  0.00  0.00  0.00
  HS02004777HS02004785    1.00   0.00  0.00  0.00  1.00  0.00  0.00  0.00  0.20  0.00
  HS02004480HS02004478    1.00   0.05  0.00  0.00  0.69  0.00  0.00  0.26  0.00  0.00
  HS02004479HS02004480    1.00   0.02  0.00  0.00  0.98  0.00  0.00  0.00  0.16  0.00
  HS02004862HS02004870    1.00   0.00  0.00  0.00  1.00  0.00  0.00  0.00  0.05  0.00
  HS02004848HS02004852    1.00   0.04  0.00  0.00  0.96  0.00  0.00  0.00  0.71  0.00
  HS02004856HS02004862    1.00   0.00  0.07  0.00  0.93  0.00  0.00  0.00  0.75  0.00
  HS02004852HS02004856    1.00   0.04  0.01  0.00  0.95  0.00  0.00  0.00  0.83  0.00
  HS02004802HS02004478    1.00   0.05  0.01  0.00  0.95  0.00  0.00  0.00  0.01  0.00
  HS02004478WS02006287    1.00   0.05  0.00  0.00  0.81  0.14  0.00  0.00  0.73  0.00
  HS02004817HS02004807    1.00   0.00  0.04  0.00  0.96  0.00  0.00  0.00  0.00  0.00
  HS02004807HS02004802    1.00   0.04  0.00  0.00  0.95  0.00  0.00  0.00  0.01  0.00
  YS02001759YS02001757    1.00   0.00  0.00  0.00  1.00  0.00  0.00  0.00  0.17  0.00
  YS02001762YS02001759    1.00   0.00  0.00  0.00  1.00  0.00  0.00  0.00  0.04  0.00
  YS02001765YS02001762    1.00   0.00  0.00  0.00  1.00  0.00  0.00  0.00  0.22  0.00
  YS02001770YS02001767    1.00   0.00  0.00  0.00  1.00  0.00  0.00  0.00  0.00  0.00
  YS02001774YS02001770    1.00   0.00  0.05  0.00  0.95  0.00  0.00  0.00  0.06  0.00
  YS02001779YS02001774    1.00   0.00  0.00  0.00  1.00  0.00  0.00  0.00  0.26  0.00
  YS02001649YS02001757    1.00   0.00  0.00  0.00  1.00  0.00  0.00  0.00  0.19  0.00
  YS02001767YS02001765    1.00   0.00  0.00  0.00  1.00  0.00  0.00  0.00  0.01  0.00
  YS02006561YS02001783    1.00   0.07  0.00  0.00  0.27  0.66  0.00  0.00  0.68  0.00
  YS02001783YS02001784    1.00   0.00  0.07  0.00  0.93  0.00  0.00  0.00  0.00  0.00
  YS02001784YS02001785    1.00   0.00  0.00  0.00  1.00  0.00  0.00  0.00  0.24  0.00
  YS02001788YS02001790    1.00   0.00  0.00  0.00  0.40  0.60  0.00  0.00  0.68  0.00
  YS02001790YS02001791    1.00   0.00  0.00  0.00  0.36  0.64  0.00  0.00  0.43  0.00
  YS02001791YS02001793    1.00   0.00  0.00  0.00  0.37  0.63  0.00  0.00  0.02  0.00
  YS02001910YS02001907    1.00   0.00  0.00  0.00  0.98  0.00  0.00  0.02  0.13  0.00
  YS02001786YS02001788    1.00   0.00  0.00  0.00  0.38  0.62  0.00  0.00  0.00  0.00
  YS02001915YS02001910    1.00   0.00  0.00  0.00  1.00  0.00  0.00  0.00  0.23  0.00
  YS02001918YS02001915    1.00   0.00  0.01  0.00  0.98  0.01  0.00  0.00  0.66  0.00
  YS02001923YS02001920    1.00   0.00  0.00  0.00  1.00  0.00  0.00  0.00  1.00  0.00
  YS02001926YS02001923    1.00   0.00  0.03  0.00  0.00  0.00  0.97  0.00  0.00  0.00
  YS02001929YS02001926    1.00   0.00  0.04  0.00  0.96  0.00  0.00  0.00  0.87  0.00
  YS02001920YS02001918    1.00   0.00  0.01  0.00  0.99  0.00  0.00  0.00  0.00  0.00
  YS02001629YS02163301    1.00   0.06  0.00  0.00  0.94  0.00  0.00  0.00  0.00  0.00
  YS02001619YS02001622    1.00   0.04  0.00  0.00  0.96  0.00  0.00  0.00  0.00  0.00
  YS02001622YS02001625    1.00   0.04  0.00  0.00  0.96  0.00  0.00  0.00  0.12  0.00
  YS02001625YS02001629    1.00   0.05  0.03  0.00  0.91  0.00  0.01  0.00  0.00  0.00
  YS02163301YS02001633    1.00   0.00  0.06  0.00  0.94  0.00  0.00  0.00  0.00  0.00
  YS02163601YS02164001    1.00   0.00  0.03  0.00  0.97  0.00  0.00  0.00  0.00  0.00
  YS02164001YS02001641    1.00   0.01  0.02  0.00  0.97  0.00  0.00  0.00  0.07  0.00
  YS02001641YS02001644    1.00   0.00  0.01  0.00  0.99  0.00  0.00  0.00  0.00  0.00
  YS02001647YS02001649    1.00   0.00  0.07  0.00  0.93  0.00  0.00  0.00  0.01  0.00
  YS02006553YS02006556    1.00   0.02  0.00  0.00  0.98  0.00  0.00  0.00  0.03  0.00
  YS02006556YS02006558    1.00   0.00  0.01  0.00  0.99  0.00  0.00  0.00  0.00  0.00
  YSB6556YSB1171          1.00   0.03  0.02  0.00  0.96  0.00  0.00  0.00  0.00  0.00
  YS02001907YS02006553    1.00   0.00  0.02  0.00  0.98  0.00  0.00  0.00  0.00  0.00
  YS02006558YS02006561    1.00   0.07  0.00  0.00  0.00  0.93  0.00  0.00  0.58  0.00
  YS02001633YS02163601    1.00   0.00  0.01  0.00  0.99  0.00  0.00  0.00  0.19  0.00
  YS02001644YS02001647    1.00   0.00  0.07  0.00  0.93  0.00  0.00  0.00  0.00  0.00
  YS02001745YS02001748    1.00   0.00  0.00  0.00  0.88  0.01  0.00  0.11  0.06  0.00
  YS02001748YS02001751    1.00   0.00  0.00  0.00  0.97  0.03  0.00  0.00  0.23  0.00
  YS02001751YS02001754    1.00   0.00  0.00  0.00  0.92  0.00  0.00  0.07  0.01  0.00
  YS02001754YS02001757    1.00   0.00  0.00  0.00  0.99  0.01  0.00  0.00  0.26  0.00
  YS02001882YS02001884    1.00   0.06  0.00  0.00  0.94  0.00  0.00  0.00  0.00  0.00
  YS02001884YS02001887    1.00   0.03  0.01  0.00  0.96  0.00  0.00  0.00  0.00  0.00
  YS02001890YS02001895    1.00   0.00  0.06  0.00  0.94  0.00  0.00  0.00  0.00  0.00
  YS02001895YS02001898    1.00   0.06  0.00  0.00  0.93  0.00  0.01  0.00  0.00  0.00
  YS02001898YS02001901    1.00   0.06  0.00  0.00  0.93  0.00  0.00  0.00  0.02  0.00
  YS02001901YS02001904    1.00   0.06  0.00  0.00  0.94  0.00  0.00  0.00  0.00  0.00
  YS02001904YS02001907    1.00   0.00  0.06  0.00  0.94  0.00  0.00  0.00  0.00  0.00
  YS02001887YS02001890    1.00   0.00  0.00  0.00  0.98  0.00  0.02  0.00  0.00  0.00
  YS02001652YS02001649    1.00   0.00  0.00  0.00  1.00  0.00  0.00  0.00  0.25  0.00
  YS02001655YS02001652    1.00   0.00  0.00  0.00  0.92  0.00  0.00  0.07  0.01  0.00
  YS02001658YS02001655    1.00   0.00  0.05  0.00  0.91  0.03  0.00  0.00  0.07  0.00
  YS02001661YS02001658    1.00   0.05  0.00  0.00  0.88  0.06  0.00  0.00  0.05  0.00
  YS02001664YS02001661    1.00   0.04  0.00  0.00  0.83  0.13  0.00  0.00  0.32  0.00
  YSB1154YSB6556          1.00   0.04  0.00  0.00  0.96  0.00  0.00  0.00  0.02  0.00
  YSB1174YSB1171          1.00   0.03  0.01  0.00  0.96  0.00  0.00  0.00  0.00  0.00
  YSB1171HS02004479       1.00   0.02  0.00  0.00  0.97  0.00  0.00  0.00  0.13  0.00
  HS02004881HS02006253    1.00   0.03  0.00  0.00  0.62  0.01  0.00  0.35  0.43  0.00
  YS02001793JiankangQianchi    1.00   0.00  0.00  0.00  0.54  0.46  0.00  0.00  0.12  0.00
  YS02001757CaochengTiaoxuchi    1.00   0.00  0.08  0.00  0.91  0.01  0.00  0.00  0.00  0.00
  WSF200WS02003060        1.00   0.00  0.08  0.00  0.73  0.19  0.00  0.00  0.26  0.00
  1                       1.00   0.00  0.00  0.00  0.00  1.00  0.00  0.00  0.26  0.00
  2                       1.00   0.94  0.00  0.00  0.00  0.06  0.00  0.00  0.01  0.00
  3                       1.00   0.07  0.00  0.00  0.00  0.93  0.00  0.00  0.00  0.00
  4                       1.00   1.00  0.00  0.00  0.00  0.00  0.00  0.00  0.00  0.00
  
  
  *************************
  Conduit Surcharge Summary
  *************************
  
  ----------------------------------------------------------------------------
                                                           Hours        Hours 
                         --------- Hours Full --------   Above Full   Capacity
  Conduit                Both Ends  Upstream  Dnstream   Normal Flow   Limited
  ----------------------------------------------------------------------------
  WS02006229WS02006228        1.10      1.15      1.10      3.46         1.10
  WS02006256WS02006235        5.71      5.71      7.83      5.07         0.01
  WS02006249WS02006248        0.01      0.01      0.01      3.30         0.01
  WS02006247WS02006245        0.01      0.01      0.01      3.36         0.01
  WS02006243WS02006242        0.01      0.01      0.25      0.01         0.01
  WS02006242WS02006240        0.13      0.13      0.33      0.08         0.01
  WS02006240WS02006239        0.18      0.18      0.24      0.01         0.01
  WS02006239WS02006238        0.33      0.33      0.35      0.01         0.01
  WS02006238WS02006235        0.34      0.34      0.63      0.01         0.01
  WS02006235WS02006234        0.27      0.27      0.33      5.74         0.01
  WS02006234WS02006232        0.33      0.33      0.83      0.01         0.01
  WS02006232WS02006231        0.15      0.15      0.83      0.01         0.01
  WS02006231WS02006230        0.01      0.01      0.19      5.68         0.01
  WS02006230WS02006229        1.61      3.41      1.61      5.76         1.60
  WS02006228WS02006109        1.12      1.30      1.12      3.59         1.12
  WS02006112WS02006115        0.01      0.01      0.55      0.01         0.01
  WS02006111WS02006112        0.01      0.01      3.49      0.01         0.01
  WS02006110WS02006113        0.01      0.01      1.21      0.01         0.01
  WS02006109WS02006110        0.35      0.35      1.31      0.35         0.01
  WS02004405WS02004406        0.01      0.01      0.01      0.40         0.01
  WS02004404WS02004405        0.01      0.04      0.01      5.69         0.01
  WS02004403WS02004404        0.01      0.01      0.04      0.01         0.01
  WS02003072WS02003073        0.01      0.01      0.01      3.55         0.01
  HS02004480HS02004478        0.01      0.01      0.01      0.15         0.01
  YS02001759YS02001757        5.49      5.49      5.53      0.01         0.01
  YS02001762YS02001759        5.48      5.48      5.49      0.01         0.01
  YS02001765YS02001762        5.46      5.46      5.48      0.01         0.01
  YS02001770YS02001767        5.40      5.41      5.42      0.01         0.53
  YS02001774YS02001770        5.33      5.33      5.48      0.01         0.01
  YS02001779YS02001774        5.09      5.09      5.48      0.01         0.01
  YS02001649YS02001757        5.48      5.48      5.53      0.01         0.01
  YS02001767YS02001765        5.42      5.42      5.46      0.01         0.01
  YS02006561YS02001783        0.01      0.01      0.02      0.01         0.01
  YS02001783YS02001784        0.02      0.02      0.02      0.01         0.01
  YS02001784YS02001785        0.02      0.02      0.02      0.96         0.01
  YS02001788YS02001790        0.01      0.01      1.50      0.01         0.01
  YS02001790YS02001791        1.50      1.50      1.63      0.01         0.01
  YS02001791YS02001793        1.63      1.63      1.89      0.01         0.01
  YS02001786YS02001788        0.01      0.02      0.01      0.45         0.01
  YS02001629YS02163301        5.35      5.35      5.38      0.01         0.01
  YS02001619YS02001622        4.42      4.43      4.51      0.01         0.01
  YS02001622YS02001625        4.51      4.51      5.26      0.01         0.01
  YS02001625YS02001629        4.45      4.45      5.26      0.01         0.01
  YS02163301YS02001633        5.38      5.38      5.46      0.01         0.01
  YS02163601YS02164001        5.45      5.45      5.47      0.01         0.01
  YS02164001YS02001641        5.45      5.45      5.46      0.01         0.02
  YS02001641YS02001644        5.46      5.46      5.46      0.01         0.66
  YS02001647YS02001649        5.25      5.25      5.48      0.01         0.01
  YS02006553YS02006556        0.01      0.01      0.06      0.01         0.01
  YS02006556YS02006558        0.01      0.01      0.25      0.01         0.01
  YS02001907YS02006553        0.99      0.99      1.19      0.01         0.01
  YS02006558YS02006561        0.01      0.01      0.01      0.82         0.01
  YS02001633YS02163601        5.44      5.44      5.47      0.01         0.01
  YS02001644YS02001647        5.25      5.25      5.46      0.01         0.01
  YS02001745YS02001748        0.01      0.01      3.93      0.01         0.01
  YS02001748YS02001751        4.13      4.13      4.51      0.01         0.01
  YS02001751YS02001754        4.51      4.51      5.17      0.01         0.01
  YS02001754YS02001757        5.25      5.25      5.53      0.01         0.01
  YS02001904YS02001907        0.01      0.01      0.04      0.01         0.01
  YS02001652YS02001649        5.26      5.26      5.48      0.01         0.01
  YS02001655YS02001652        4.59      4.59      5.24      0.01         0.01
  YS02001658YS02001655        3.94      3.94      4.59      0.01         0.01
  YS02001661YS02001658        0.01      0.01      3.94      0.01         0.01
  YS02001664YS02001661        0.01      0.01      0.42      0.01         0.01
  YS02001793JiankangQianchi        1.83      1.83      2.73      0.01         0.01
  YS02001757CaochengTiaoxuchi        4.19      4.19      5.53      0.01         0.01
  3                           0.01      0.01      0.01      0.01         0.01
  
  
  ***************
  Pumping Summary
  ***************
  
  ---------------------------------------------------------------------------------------------------------
                                                  Min       Avg       Max     Total     Power    % Time Off
                        Percent   Number of      Flow      Flow      Flow    Volume     Usage    Pump Curve
  Pump                 Utilized   Start-Ups       LPS       LPS       LPS  10^6 ltr     Kw-hr    Low   High
  ---------------------------------------------------------------------------------------------------------
  CC-Pump-1               42.38           2      0.00    183.18    200.00     2.186      3.69    0.0   16.0
  CC-Pump-2                6.38           1      0.00    132.88    200.00     0.240      0.63    0.0    0.0
  JK-Pump-1               72.34           2      0.00    144.72    300.00     1.883     27.18    0.0    0.0
  JK-Pump-2               89.36           2      0.00    188.89    300.00     3.311     37.70    0.0    0.0
  XR-Pump-1               38.30           2      0.00     84.44     95.00     0.912      5.55    0.0    0.0
  XR-Pump-2               40.43           2      0.00     83.45     95.00     0.998     15.93    0.0    0.0
  XR-Pump-3               85.11           2      0.00     92.79     95.00     2.223     19.43    0.0    0.0
  XR-Pump-4               93.62           3      0.00     89.81     95.00     2.394     22.01    0.0    0.0
  

  Analysis begun on:  Tue Dec 21 17:03:33 2021
  Analysis ended on:  Tue Dec 21 17:03:36 2021
  Total elapsed time: 00:00:03