
  EPA STORM WATER MANAGEMENT MODEL - VERSION 5.1 (Build 5.3.0.dev0)
  --------------------------------------------------------------

  WARNING 04: minimum elevation drop used for Conduit WS02004404WS02004405
  WARNING 03: negative offset ignored for Link YS02001904YS02001907
  
  *********************************************************
  NOTE: The summary statistics displayed in this report are
  based on results found at every computational time step,  
  not just on results from each reporting time step.
  *********************************************************
  
  ****************
  Analysis Options
  ****************
  Flow Units ............... LPS
  Process Models:
    Rainfall/Runoff ........ YES
    RDII ................... NO
    Snowmelt ............... NO
    Groundwater ............ NO
    Flow Routing ........... YES
    Ponding Allowed ........ NO
    Water Quality .......... NO
  Infiltration Method ...... HORTON
  Flow Routing Method ...... DYNWAVE
  Surcharge Method ......... EXTRAN
  Starting Date ............ 08/28/2015 08:00:00
  Ending Date .............. 08/28/2015 15:50:00
  Antecedent Dry Days ...... 8.0
  Report Time Step ......... 00:01:00
  Wet Time Step ............ 00:01:00
  Dry Time Step ............ 00:01:00
  Routing Time Step ........ 5.00 sec
  Variable Time Step ....... YES
  Maximum Trials ........... 8
  Number of Threads ........ 4
  Head Tolerance ........... 0.001500 m
  
  
  **************************        Volume         Depth
  Runoff Quantity Continuity     hectare-m            mm
  **************************     ---------       -------
  Total Precipitation ......         2.740         6.000
  Evaporation Loss .........         0.000         0.000
  Infiltration Loss ........         0.689         1.508
  Surface Runoff ...........         1.164         2.549
  Final Storage ............         0.888         1.944
  Continuity Error (%) .....        -0.018
  
  
  **************************        Volume        Volume
  Flow Routing Continuity        hectare-m      10^6 ltr
  **************************     ---------     ---------
  Dry Weather Inflow .......         0.616         6.165
  Wet Weather Inflow .......         1.164        11.637
  Groundwater Inflow .......         0.000         0.000
  RDII Inflow ..............         0.000         0.000
  External Inflow ..........         0.102         1.024
  External Outflow .........         1.421        14.208
  Flooding Loss ............         0.051         0.514
  Evaporation Loss .........         0.000         0.000
  Exfiltration Loss ........         0.000         0.000
  Initial Stored Volume ....         0.076         0.761
  Final Stored Volume ......         0.600         6.000
  Continuity Error (%) .....        -5.800
  
  
  *************************
  Highest Continuity Errors
  *************************
  Node JK-storage (-33.04%)
  Node HS02004842 (28.08%)
  Node YS02001884 (22.61%)
  Node YS02001774 (22.28%)
  Node YSB1171 (6.85%)
  
  
  ***************************
  Time-Step Critical Elements
  ***************************
  Link WS02006252WS02006251 (47.50%)
  Link 3 (42.49%)
  Link YS02001793JiankangQianchi (2.63%)
  Link WS02006280WS02006229 (2.33%)
  
  
  ********************************
  Highest Flow Instability Indexes
  ********************************
  Link WS02006113WS02006111 (54)
  Link WS02006111WS02006112 (20)
  Link YS02006558YS02006561 (17)
  Link YS02001629YS02163301 (11)
  Link YS02164001YS02001641 (10)
  
  
  *************************
  Routing Time Step Summary
  *************************
  Minimum Time Step           :     0.50 sec
  Average Time Step           :     1.12 sec
  Maximum Time Step           :     5.00 sec
  Percent in Steady State     :    -0.00
  Average Iterations per Step :     2.83
  Percent Not Converging      :     9.11
  
  
  ***************************
  Subcatchment Runoff Summary
  ***************************
  
  ------------------------------------------------------------------------------------------------------------------------------
                            Total      Total      Total      Total     Imperv       Perv      Total       Total     Peak  Runoff
                           Precip      Runon       Evap      Infil     Runoff     Runoff     Runoff      Runoff   Runoff   Coeff
  Subcatchment                 mm         mm         mm         mm         mm         mm         mm    10^6 ltr      LPS
  ------------------------------------------------------------------------------------------------------------------------------
  sub0                       6.00       0.00       0.00       0.42       4.32       0.00       4.32        0.00     1.44   0.719
  sub1                       6.00       0.00       0.00       0.66       4.08       0.00       4.08        0.03     7.61   0.681
  sub2                       6.00       0.00       0.00       2.22       2.87       0.00       2.87        0.03     6.74   0.479
  sub3                       6.00       0.00       0.00       2.22       2.84       0.00       2.84        0.06    13.89   0.473
  sub4                       6.00       0.00       0.00       0.66       3.95       0.00       3.95        0.08    15.61   0.658
  sub5                       6.00       0.00       0.00       0.42       4.27       0.00       4.27        0.05    13.53   0.711
  sub7                       6.00       0.00       0.00       0.54       4.21       0.00       4.21        0.01     4.76   0.701
  sub8                       6.00       0.00       0.00       0.54       4.20       0.00       4.20        0.03     8.41   0.699
  sub9                       6.00       0.00       0.00       0.54       4.19       0.00       4.19        0.02     6.23   0.699
  sub10                      6.00       0.00       0.00       0.48       4.23       0.00       4.23        0.05    13.51   0.705
  sub11                      6.00       0.00       0.00       0.48       4.25       0.00       4.25        0.05    15.82   0.708
  sub12                      6.00       0.00       0.00       0.78       4.03       0.00       4.03        0.04    13.37   0.672
  sub14                      6.00       0.00       0.00       0.54       4.19       0.00       4.19        0.04    12.19   0.699
  sub15                      6.00       0.00       0.00       1.80       3.22       0.00       3.22        0.06    16.54   0.537
  sub16                      6.00       0.00       0.00       1.98       3.10       0.00       3.10        0.03    11.75   0.517
  sub17                      6.00       0.00       0.00       1.92       3.15       0.00       3.15        0.03     9.50   0.524
  sub22                      6.00       0.00       0.00       2.58       2.63       0.00       2.63        0.17    54.10   0.439
  sub23                      6.00       0.00       0.00       2.22       2.91       0.00       2.91        0.14    46.08   0.485
  sub60                      6.00       0.00       0.00       0.72       2.84       0.00       2.84        0.86    79.76   0.473
  sub61                      6.00       0.00       0.00       1.02       3.04       0.00       3.04        0.94   100.03   0.506
  sub62                      6.00       0.00       0.00       0.48       3.26       0.00       3.26        1.00   102.24   0.543
  sub63                      6.00       0.00       0.00       1.74       2.70       0.00       2.70        0.82    93.34   0.451
  sub64                      6.00       0.00       0.00       0.90       2.71       0.00       2.71        0.83    75.76   0.452
  sub65                      6.00       0.00       0.00       0.78       2.75       0.00       2.75        0.85    76.87   0.458
  sub66                      6.00       0.00       0.00       1.74       2.37       0.00       2.37        0.73    69.43   0.395
  sub67                      6.00       0.00       0.00       0.48       3.58       0.00       3.58        1.10   131.19   0.596
  sub68                      6.00       0.00       0.00       0.84       3.23       0.00       3.23        0.99   110.58   0.538
  sub69                      6.00       0.00       0.00       0.90       3.48       0.00       3.48        0.81   109.76   0.581
  sub70                      6.00       3.56       0.00       3.25       4.28       0.00       4.28        0.98    88.75   0.448
  sub71                      6.00       0.00       0.00       0.48       3.11       0.00       3.11        0.74    71.37   0.519
  sub72                      6.00       0.00       0.00       0.42       2.20       0.00       2.20        0.45    33.68   0.367
  sub73                      6.00       4.17       0.00       3.46       4.36       0.00       4.36        1.03    76.27   0.429
  sub74                      6.00       0.00       0.00       4.50       1.05       0.00       1.05        0.42    61.21   0.175
  
  
  ******************
  Node Depth Summary
  ******************
  
  ---------------------------------------------------------------------------------
                                 Average  Maximum  Maximum  Time of Max    Reported
                                   Depth    Depth      HGL   Occurrence   Max Depth
  Node                 Type       Meters   Meters   Meters  days hr:min      Meters
  ---------------------------------------------------------------------------------
  WS02001211           JUNCTION     0.64     0.71     5.55     0  03:21        0.71
  WS02001212           JUNCTION     0.36     0.43     5.49     0  03:20        0.43
  WS02001213           JUNCTION     0.58     0.67     5.43     0  03:19        0.67
  WS02003069           JUNCTION     0.40     0.51     5.10     0  02:37        0.51
  WS02003072           JUNCTION     0.46     0.58     4.95     0  02:37        0.58
  WS02003073           JUNCTION     0.27     0.35     4.42     0  02:38        0.35
  WS02003060           JUNCTION     0.36     0.45     5.39     0  02:36        0.45
  WS02003066           JUNCTION     0.21     0.29     5.84     0  02:39        0.29
  WS02003059           JUNCTION     0.64     0.73     5.42     0  02:34        0.73
  WS02003067           JUNCTION     0.52     0.68     6.00     0  02:39        0.68
  WS02004401           JUNCTION     0.61     0.82     6.82     0  02:35        0.82
  WS02004402           JUNCTION     0.64     0.85     6.81     0  02:35        0.85
  WS02004403           JUNCTION     0.67     0.86     6.79     0  02:35        0.86
  WS02004404           JUNCTION     0.74     0.94     6.79     0  02:35        0.94
  WS02004406           JUNCTION     0.75     0.93     6.76     0  02:35        0.93
  WS02004409           JUNCTION     0.43     0.64     6.41     0  02:38        0.64
  WS02004410           JUNCTION     0.45     0.65     6.37     0  02:38        0.65
  WS02004411           JUNCTION     0.47     0.66     6.34     0  02:38        0.66
  WS02004412           JUNCTION     0.49     0.67     6.31     0  02:39        0.67
  WS02004413           JUNCTION     0.64     0.83     6.30     0  02:39        0.83
  WS02004405           JUNCTION     0.74     0.93     6.78     0  02:35        0.93
  WS02006109           JUNCTION     0.68     0.92     7.54     0  02:31        0.92
  WS02006110           JUNCTION     0.68     0.89     7.47     0  02:31        0.89
  WS02006111           JUNCTION     0.19     0.27     6.98     0  02:32        0.27
  WS02006112           JUNCTION     0.77     1.01     6.89     0  02:36        1.01
  WS02006113           JUNCTION     0.30     0.43     7.33     0  02:32        0.43
  WS02006115           JUNCTION     0.50     0.72     6.85     0  02:35        0.72
  WS02006116           JUNCTION     0.58     0.80     6.84     0  02:35        0.80
  WS02006230           JUNCTION     0.62     0.94     7.69     0  02:32        0.94
  WS02006231           JUNCTION     0.41     0.61     7.73     0  02:32        0.61
  WS02006232           JUNCTION     0.53     0.74     7.78     0  02:33        0.74
  WS02006234           JUNCTION     0.44     0.66     7.81     0  02:33        0.66
  WS02006235           JUNCTION     0.47     0.68     7.84     0  02:33        0.68
  WS02006238           JUNCTION     0.49     0.71     7.85     0  02:33        0.71
  WS02006240           JUNCTION     0.37     0.60     7.89     0  02:34        0.60
  WS02006242           JUNCTION     0.41     0.65     7.92     0  02:34        0.65
  WS02006243           JUNCTION     0.28     0.52     7.94     0  02:35        0.52
  WS02006245           JUNCTION     0.25     0.49     7.97     0  02:35        0.49
  WS02006247           JUNCTION     0.26     0.50     8.00     0  02:35        0.50
  WS02006248           JUNCTION     0.22     0.44     8.02     0  02:35        0.44
  WS02006249           JUNCTION     0.25     0.46     8.06     0  02:35        0.46
  WS02006239           JUNCTION     0.44     0.66     7.87     0  02:34        0.66
  WS02006251           JUNCTION     0.23     0.44     8.11     0  02:35        0.44
  WS02006252           JUNCTION     0.21     0.35     8.59     0  05:10        0.35
  WS02006253           JUNCTION     0.26     0.47     8.12     0  02:35        0.47
  WS02006256           JUNCTION     1.02     2.35     9.28     0  00:00        1.19
  WS02004138           JUNCTION     0.15     0.17     7.42     0  00:00        0.17
  WS02004407           JUNCTION     0.20     0.28     6.60     0  02:36        0.28
  WS02006228           JUNCTION     0.67     0.95     7.60     0  02:31        0.95
  WS02006229           JUNCTION     0.64     0.94     7.64     0  02:31        0.94
  WS02006280           JUNCTION     0.06     0.15     8.42     0  02:18        0.15
  WS02006284           JUNCTION     0.35     0.48     8.88     0  02:18        0.48
  WS02006287           JUNCTION     0.08     0.21     9.17     0  02:17        0.21
  WSF200               JUNCTION     0.19     0.30     5.53     0  02:38        0.30
  HS02004901           JUNCTION     0.11     0.23    10.05     0  02:15        0.23
  HS02004881           JUNCTION     0.01     0.02     9.05     0  02:17        0.02
  HS02004876           JUNCTION     0.04     0.10     9.13     0  02:16        0.10
  HS02004870           JUNCTION     0.01     0.04     9.33     0  02:18        0.04
  HS02004862           JUNCTION     0.01     0.05     9.43     0  02:19        0.05
  HS02004856           JUNCTION     0.07     0.10     9.53     0  02:18        0.10
  HS02004852           JUNCTION     0.01     0.03     9.54     0  02:19        0.03
  HS02004848           JUNCTION     0.01     0.03     9.63     0  02:18        0.03
  HS02004842           JUNCTION     0.33     0.36     9.63     0  02:17        0.36
  HS02004837           JUNCTION     0.03     0.05     9.63     0  02:17        0.05
  HS02004830           JUNCTION     0.04     0.06     9.53     0  02:18        0.06
  HS02004824           JUNCTION     0.02     0.04     9.44     0  02:21        0.04
  HS02004817           JUNCTION     0.42     0.53     9.37     0  02:18        0.53
  HS02004807           JUNCTION     0.11     0.20     9.37     0  02:18        0.20
  HS02004802           JUNCTION     0.15     0.24     9.37     0  02:18        0.24
  HS02004799           JUNCTION     0.11     0.26     9.47     0  02:16        0.26
  HS02004792           JUNCTION     0.03     0.10     9.62     0  02:15        0.10
  HS02004788           JUNCTION     0.02     0.07     9.97     0  02:16        0.07
  HS02004785           JUNCTION     0.04     0.14    10.04     0  02:16        0.14
  HS02004777           JUNCTION     0.14     0.25    10.05     0  02:15        0.25
  HS02004770           JUNCTION     0.11     0.22    10.05     0  02:15        0.22
  HS02004480           JUNCTION     0.07     0.20     9.44     0  02:16        0.20
  HS02004479           JUNCTION     0.11     0.24     9.44     0  02:16        0.24
  HS02004478           JUNCTION     0.05     0.13     9.36     0  02:17        0.13
  YS02001745           JUNCTION     0.22     0.73     8.24     0  07:50        0.73
  YS02001748           JUNCTION     0.55     1.17     8.24     0  07:50        1.17
  YS02001751           JUNCTION     0.72     1.38     8.26     0  05:24        1.36
  YS02001754           JUNCTION     0.97     1.63     8.24     0  07:50        1.63
  YS02001762           JUNCTION     1.16     1.84     8.24     0  07:50        1.84
  YS02001765           JUNCTION     1.12     1.79     8.24     0  07:50        1.79
  YS02001767           JUNCTION     1.08     1.75     8.24     0  07:50        1.75
  YS02001770           JUNCTION     1.08     1.75     8.24     0  07:49        1.75
  YS02001774           JUNCTION     1.14     1.82     8.24     0  07:49        1.82
  YS02001779           JUNCTION     0.90     1.56     8.24     0  07:49        1.56
  YS02001882           JUNCTION     0.30     0.47     7.18     0  02:53        0.47
  YS02001884           JUNCTION     0.40     0.57     7.18     0  02:52        0.57
  YS02001759           JUNCTION     1.20     1.88     8.24     0  07:50        1.88
  YS02001887           JUNCTION     0.47     0.64     7.18     0  02:52        0.64
  YS02001890           JUNCTION     0.50     0.67     7.18     0  02:53        0.67
  YS02001898           JUNCTION     0.27     0.43     7.16     0  02:54        0.43
  YS02001901           JUNCTION     0.39     0.56     7.16     0  02:54        0.56
  YS02001904           JUNCTION     0.37     0.53     7.16     0  02:54        0.53
  YS02001907           JUNCTION     0.70     0.87     7.16     0  02:54        0.87
  YS02001910           JUNCTION     0.49     0.66     7.16     0  02:54        0.66
  YS02001915           JUNCTION     0.29     0.44     7.16     0  02:53        0.44
  YS02001918           JUNCTION     0.08     0.10     7.16     0  03:03        0.10
  YS02001619           JUNCTION     0.69     1.32     8.24     0  07:50        1.32
  YS02001629           JUNCTION     1.03     1.70     8.24     0  07:50        1.70
  YS02001641           JUNCTION     1.13     1.81     8.24     0  07:50        1.81
  YS02001644           JUNCTION     1.14     1.81     8.24     0  07:50        1.81
  YS02001652           JUNCTION     0.98     1.65     8.24     0  07:50        1.65
  YS02001655           JUNCTION     0.75     1.39     8.24     0  07:50        1.39
  YS02001920           JUNCTION     0.18     0.21     7.22     0  03:02        0.21
  YS02001923           JUNCTION     0.07     0.09     7.35     0  03:02        0.09
  YS02001926           JUNCTION     0.14     0.18     7.62     0  03:01        0.18
  YS02001929           JUNCTION     0.07     0.09     7.78     0  03:01        0.09
  YS02001658           JUNCTION     0.49     1.10     8.24     0  07:50        1.10
  YS02001661           JUNCTION     0.31     0.84     8.24     0  07:50        0.84
  YS02001664           JUNCTION     0.09     0.32     8.24     0  07:50        0.32
  YS02001622           JUNCTION     0.71     1.34     8.24     0  07:50        1.34
  YS02001633           JUNCTION     1.12     1.79     8.24     0  07:50        1.79
  YS02001649           JUNCTION     1.17     1.85     8.24     0  07:50        1.85
  YS02001757           JUNCTION     1.30     1.98     8.24     0  07:50        1.98
  YS02001895           JUNCTION     0.27     0.43     7.17     0  02:54        0.43
  YS02001625           JUNCTION     0.98     1.64     8.24     0  07:50        1.64
  YS02163301           JUNCTION     1.06     1.73     8.24     0  07:50        1.73
  YS02163601           JUNCTION     1.17     1.85     8.24     0  07:50        1.85
  YS02164001           JUNCTION     1.11     1.79     8.24     0  07:50        1.79
  YS02001647           JUNCTION     0.97     1.63     8.24     0  07:50        1.63
  YSB1154              JUNCTION     0.24     0.39     9.44     0  02:16        0.39
  YSB6556              JUNCTION     0.14     0.28     9.44     0  02:16        0.27
  YSB1174              JUNCTION     0.20     0.34     9.44     0  02:16        0.33
  YSB1171              JUNCTION     0.39     0.54     9.44     0  02:16        0.54
  YS02006553           JUNCTION     0.70     0.88     7.16     0  02:55        0.88
  YS02006561           JUNCTION     0.15     0.23     6.89     0  02:55        0.23
  YS02006556           JUNCTION     0.67     0.85     7.16     0  02:55        0.85
  YS02006558           JUNCTION     0.72     0.89     7.16     0  02:54        0.89
  YS02001783           JUNCTION     0.28     0.61     6.76     0  02:57        0.59
  YS02001784           JUNCTION     0.32     0.67     6.74     0  02:57        0.67
  YS02001786           JUNCTION     0.29     0.68     6.71     0  02:57        0.68
  YS02001788           JUNCTION     0.24     0.70     6.68     0  02:58        0.70
  YS02001790           JUNCTION     0.33     1.75     7.40     0  02:54        1.01
  YS02001791           JUNCTION     0.32     1.53     7.00     0  02:54        1.15
  YS02001793           JUNCTION     0.45     2.52     7.35     0  02:50        1.77
  WS02004139           JUNCTION     0.58     0.65     5.56     0  03:21        0.65
  WSC                  OUTFALL      0.27     0.35     1.02     0  02:38        0.35
  3                    OUTFALL      0.08     0.23     6.23     0  00:00        0.19
  4                    OUTFALL      0.00     0.00     7.00     0  00:00        0.00
  5                    OUTFALL      0.00     0.00     5.00     0  00:00        0.00
  JK-storage           STORAGE      1.87     5.80     6.60     0  02:55        5.80
  CC-storage           STORAGE      0.54     1.24     8.24     0  07:50        1.24
  XR-storage           STORAGE      5.75     7.72     5.72     0  05:16        7.72
  
  
  *******************
  Node Inflow Summary
  *******************
  
  -------------------------------------------------------------------------------------------------
                                  Maximum  Maximum                  Lateral       Total        Flow
                                  Lateral    Total  Time of Max      Inflow      Inflow     Balance
                                   Inflow   Inflow   Occurrence      Volume      Volume       Error
  Node                 Type           LPS      LPS  days hr:min    10^6 ltr    10^6 ltr     Percent
  -------------------------------------------------------------------------------------------------
  WS02001211           JUNCTION      7.35   292.87     0  03:29       0.207        6.48       0.448
  WS02001212           JUNCTION      0.00   293.11     0  03:29           0        6.45       0.256
  WS02001213           JUNCTION      0.00   293.34     0  03:28           0        6.43       0.291
  WS02003069           JUNCTION      0.32   756.91     0  02:36     0.00902        12.1       0.168
  WS02003072           JUNCTION      0.00   756.85     0  02:37           0        12.1       0.223
  WS02003073           JUNCTION      1.82   758.65     0  02:37      0.0514        12.1       0.237
  WS02003060           JUNCTION     16.53   756.51     0  02:36       0.466        12.1       0.162
  WS02003066           JUNCTION      0.00   494.04     0  02:39           0        5.26       0.057
  WS02003059           JUNCTION      0.00   293.77     0  03:28           0        6.42       0.471
  WS02003067           JUNCTION      0.00   494.02     0  02:39           0        5.27       0.130
  WS02004401           JUNCTION      0.00   497.00     0  02:33           0        5.44       0.293
  WS02004402           JUNCTION      0.00   496.53     0  02:35           0        5.42       0.286
  WS02004403           JUNCTION      0.00   496.44     0  02:35           0        5.41       0.267
  WS02004404           JUNCTION      0.16   496.42     0  02:35     0.00457         5.4       0.208
  WS02004406           JUNCTION      0.00   496.45     0  02:35           0        5.37       0.512
  WS02004409           JUNCTION      0.00   496.38     0  02:36           0        5.34       0.181
  WS02004410           JUNCTION      0.00   495.29     0  02:36           0        5.33       0.218
  WS02004411           JUNCTION      0.00   494.62     0  02:38           0        5.32       0.234
  WS02004412           JUNCTION      0.00   494.29     0  02:38           0         5.3       0.269
  WS02004413           JUNCTION      0.00   494.12     0  02:39           0        5.29       0.423
  WS02004405           JUNCTION      0.04   496.46     0  02:35     0.00107        5.39       0.317
  WS02006109           JUNCTION      1.23   494.73     0  02:31      0.0347         5.5       0.321
  WS02006110           JUNCTION      0.00   494.74     0  02:31           0        5.48       0.267
  WS02006111           JUNCTION      0.00   511.74     0  02:32           0        5.46       0.046
  WS02006112           JUNCTION      9.50   502.66     0  02:32       0.027        5.49       0.401
  WS02006113           JUNCTION      0.00   494.90     0  02:31           0        5.47       0.107
  WS02006115           JUNCTION      0.00   499.94     0  02:32           0        5.46       0.246
  WS02006116           JUNCTION      0.00   498.06     0  02:33           0        5.45       0.248
  WS02006230           JUNCTION     10.28   329.64     0  03:12        0.29        4.57       0.270
  WS02006231           JUNCTION      0.00   318.75     0  03:12           0        4.29       0.066
  WS02006232           JUNCTION      0.00   318.46     0  03:11           0         4.3       0.273
  WS02006234           JUNCTION      0.00   318.10     0  03:11           0         4.3       0.070
  WS02006235           JUNCTION      0.00   317.92     0  03:11           0        4.34       0.183
  WS02006238           JUNCTION      0.00   267.25     0  02:40           0        1.94       0.222
  WS02006240           JUNCTION      0.00   253.52     0  02:41           0        1.92       0.227
  WS02006242           JUNCTION      0.00   247.14     0  02:41           0        1.92       0.259
  WS02006243           JUNCTION      0.00   240.18     0  02:41           0        1.91      -0.167
  WS02006245           JUNCTION      0.00   236.58     0  02:41           0        1.91       0.118
  WS02006247           JUNCTION      0.00   235.10     0  02:26           0        1.91      -0.006
  WS02006248           JUNCTION      0.00   236.30     0  02:25           0        1.91      -0.075
  WS02006249           JUNCTION      0.00   237.67     0  02:24           0        1.91       0.129
  WS02006239           JUNCTION      0.00   260.79     0  02:40           0        1.93       0.280
  WS02006251           JUNCTION      0.08   239.36     0  02:23     0.00217        1.91      -0.007
  WS02006252           JUNCTION      0.00   200.00     0  02:21           0        1.76       0.004
  WS02006253           JUNCTION      1.44    42.32     0  02:17     0.00349       0.155      -0.175
  WS02006256           JUNCTION      0.00   600.00     0  00:00           0        4.56       0.046
  WS02004138           JUNCTION      0.00   285.00     0  00:00           0         6.3       0.068
  WS02004407           JUNCTION      0.00   496.41     0  02:36           0        5.34       0.085
  WS02006228           JUNCTION      0.00   493.50     0  02:31           0        5.48       0.215
  WS02006229           JUNCTION      0.00   493.49     0  02:31           0        5.49       0.166
  WS02006280           JUNCTION      0.00   216.64     0  02:18           0       0.924       0.008
  WS02006284           JUNCTION      0.10   216.63     0  02:17      0.0027       0.925       0.116
  WS02006287           JUNCTION      0.00   216.52     0  02:17           0       0.923       0.079
  WSF200               JUNCTION      0.00   494.07     0  02:39           0        5.26       0.044
  HS02004901           JUNCTION     11.75    11.75     0  02:10      0.0324      0.0326       5.696
  HS02004881           JUNCTION      4.76    41.21     0  02:17      0.0142       0.149       0.208
  HS02004876           JUNCTION      7.61    36.76     0  02:17      0.0271       0.135       0.391
  HS02004870           JUNCTION      8.41    29.30     0  02:17      0.0268       0.108       0.099
  HS02004862           JUNCTION      6.94    21.43     0  02:18      0.0324      0.0817       0.207
  HS02004856           JUNCTION      6.23    14.54     0  02:17      0.0202      0.0507       2.919
  HS02004852           JUNCTION      0.00     8.69     0  02:18           0      0.0306       0.166
  HS02004848           JUNCTION     13.89    13.89     0  02:20      0.0639      0.0639       0.069
  HS02004842           JUNCTION      0.00     5.68     0  02:30           0      0.0463      39.051
  HS02004837           JUNCTION     19.86    24.67     0  02:17       0.226       0.259       0.315
  HS02004830           JUNCTION      0.15    24.80     0  02:17     0.00423       0.249       0.497
  HS02004824           JUNCTION     15.66    40.27     0  02:21      0.0837       0.332       0.162
  HS02004817           JUNCTION      0.60    40.87     0  02:21      0.0169       0.348       5.027
  HS02004807           JUNCTION     15.82    55.30     0  02:19      0.0493       0.381       1.122
  HS02004802           JUNCTION      0.00    55.62     0  02:20           0       0.377       1.086
  HS02004799           JUNCTION     12.19   137.49     0  02:15      0.0399       0.481       0.475
  HS02004792           JUNCTION     54.38   125.54     0  02:15       0.174       0.442       0.093
  HS02004788           JUNCTION     18.21    73.10     0  02:15       0.102       0.269       0.144
  HS02004785           JUNCTION      0.15    55.23     0  02:15     0.00423       0.168       0.287
  HS02004777           JUNCTION      0.03    55.54     0  02:13    0.000846       0.169       3.165
  HS02004770           JUNCTION     46.08    56.61     0  02:12       0.139        0.17       1.861
  HS02004480           JUNCTION      0.00   162.16     0  02:16           0       0.562       0.130
  HS02004479           JUNCTION      0.00    25.16     0  02:17           0      0.0929       0.791
  HS02004478           JUNCTION      0.00   216.50     0  02:17           0       0.923       0.067
  YS02001745           JUNCTION     79.77   141.05     0  05:05       0.861       0.931       1.113
  YS02001748           JUNCTION      0.04   176.80     0  05:12     0.00127       0.953       2.518
  YS02001751           JUNCTION      0.01   186.65     0  05:11     0.00031       0.863       2.804
  YS02001754           JUNCTION      0.26   122.91     0  03:10     0.00733       0.819       3.036
  YS02001762           JUNCTION      0.00   117.85     0  02:37           0       0.929       2.357
  YS02001765           JUNCTION      0.00   117.18     0  02:44           0       0.932       2.699
  YS02001767           JUNCTION      0.54   124.28     0  02:44      0.0151       0.953       3.899
  YS02001770           JUNCTION    102.39   125.55     0  02:56           1        1.04       3.120
  YS02001774           JUNCTION      0.00    50.18     0  04:41           0       0.114      28.660
  YS02001779           JUNCTION      0.01    50.30     0  04:41    0.000141      0.0513      40.319
  YS02001882           JUNCTION      0.00     4.18     0  02:09           0     0.00541      45.552
  YS02001884           JUNCTION      0.00    11.61     0  02:06           0      0.0217      29.216
  YS02001759           JUNCTION    100.07   213.96     0  02:51       0.937        1.83       1.268
  YS02001887           JUNCTION    131.64   131.64     0  02:42        1.12        1.13       0.643
  YS02001890           JUNCTION      0.00   130.86     0  02:41           0         1.1       0.720
  YS02001898           JUNCTION      0.00   130.17     0  02:45           0        1.09       0.204
  YS02001901           JUNCTION      0.00   129.86     0  02:46           0        1.09       0.512
  YS02001904           JUNCTION      0.00   129.69     0  02:47           0        1.09       0.476
  YS02001907           JUNCTION      0.00   236.27     0  02:55           0        2.34       0.956
  YS02001910           JUNCTION      0.00   107.96     0  03:01           0        1.26       0.818
  YS02001915           JUNCTION     71.39   107.58     0  03:01       0.736        1.26       0.366
  YS02001918           JUNCTION      0.00    36.54     0  03:02           0       0.527       0.220
  YS02001619           JUNCTION     69.43    69.43     0  02:58       0.726       0.728       1.774
  YS02001629           JUNCTION      0.00   118.66     0  05:02           0       0.675       4.573
  YS02001641           JUNCTION      0.00   155.01     0  03:05           0        1.39       1.561
  YS02001644           JUNCTION     75.80   235.38     0  03:03       0.826        2.19       1.223
  YS02001652           JUNCTION      0.00   124.71     0  02:52           0       0.763       3.097
  YS02001655           JUNCTION      0.15   172.92     0  05:16     0.00434       0.812       3.176
  YS02001920           JUNCTION      2.87    36.56     0  03:02      0.0809       0.529       0.392
  YS02001923           JUNCTION      0.04    33.69     0  03:01     0.00106       0.448       0.069
  YS02001926           JUNCTION      0.05    33.72     0  03:01     0.00147       0.449       0.491
  YS02001929           JUNCTION     33.68    33.68     0  03:01       0.448       0.448       0.067
  YS02001658           JUNCTION      0.00   163.25     0  05:03           0         0.9       2.722
  YS02001661           JUNCTION      0.00   151.95     0  05:09           0       0.891       2.245
  YS02001664           JUNCTION     93.34    93.34     0  02:45       0.818        0.82       0.440
  YS02001622           JUNCTION      0.00    82.53     0  02:54           0       0.746       4.498
  YS02001633           JUNCTION     77.07   165.09     0  03:15        0.85        1.45       2.223
  YS02001649           JUNCTION      0.00   323.42     0  02:59           0        2.85       1.320
  YS02001757           JUNCTION      0.00   582.05     0  02:55           0        5.37       1.749
  YS02001895           JUNCTION      0.00   130.52     0  02:45           0        1.09       0.345
  YS02001625           JUNCTION      0.00   119.29     0  05:02           0       0.741       5.503
  YS02163301           JUNCTION      0.00   104.38     0  02:54           0       0.626       4.010
  YS02163601           JUNCTION      0.11   155.89     0  03:01      0.0031        1.41       2.184
  YS02164001           JUNCTION      0.00   153.38     0  03:05           0        1.39       1.487
  YS02001647           JUNCTION      0.00   241.00     0  03:03           0        2.15       1.321
  YSB1154              JUNCTION     13.53    13.53     0  02:15      0.0483      0.0496       2.997
  YSB6556              JUNCTION      0.00    13.53     0  02:17           0      0.0506       2.526
  YSB1174              JUNCTION     13.37    13.37     0  02:09      0.0352      0.0362       3.679
  YSB1171              JUNCTION      0.00    25.16     0  02:15           0      0.0923       7.353
  YS02006553           JUNCTION      0.00   236.30     0  02:55           0        2.32       0.620
  YS02006561           JUNCTION      0.00   354.32     0  02:54           0        3.29       0.020
  YS02006556           JUNCTION      0.00   236.36     0  02:55           0        2.33       0.448
  YS02006558           JUNCTION    111.46   346.97     0  02:55        1.02        3.32       0.137
  YS02001783           JUNCTION      0.00   351.12     0  02:55           0        3.29       0.048
  YS02001784           JUNCTION      1.06   375.57     0  02:57      0.0299        3.32       0.078
  YS02001786           JUNCTION      0.06   365.25     0  02:59     0.00159        3.32       0.075
  YS02001788           JUNCTION      0.07   378.12     0  02:58       0.002        3.32       0.044
  YS02001790           JUNCTION      0.15   374.56     0  02:58     0.00437        3.32       0.048
  YS02001791           JUNCTION      0.00   374.74     0  02:58           0        3.32       0.025
  YS02001793           JUNCTION      0.00   415.08     0  02:49           0        3.32       0.003
  WS02004139           JUNCTION      0.32   290.33     0  00:00     0.00905         6.3       0.518
  WSC                  OUTFALL       0.00   758.63     0  02:38           0        12.1       0.000
  3                    OUTFALL       0.00   597.65     0  00:00           0        2.14       0.000
  4                    OUTFALL       0.00     0.00     0  00:00           0           0       0.000 ltr
  5                    OUTFALL       0.00     0.00     0  00:00           0           0       0.000 ltr
  JK-storage           STORAGE       0.00   608.80     0  02:49           0        3.47     -24.835
  CC-storage           STORAGE       0.00   583.26     0  02:57           0        5.28       1.186
  XR-storage           STORAGE     329.23   329.23     0  02:54        7.08        7.68      -0.000
  
  
  **********************
  Node Surcharge Summary
  **********************
  
  Surcharging occurs when water rises above the top of the highest conduit.
  ---------------------------------------------------------------------
                                               Max. Height   Min. Depth
                                   Hours       Above Crown    Below Rim
  Node                 Type      Surcharged         Meters       Meters
  ---------------------------------------------------------------------
  WS02006109           JUNCTION        0.73          0.102        1.718
  WS02006112           JUNCTION        0.12          0.007        1.673
  WS02006232           JUNCTION        0.20          0.036        1.444
  WS02006256           JUNCTION        0.01          1.050        0.000
  WS02006228           JUNCTION        0.69          0.120        2.080
  YS02001748           JUNCTION        0.67          0.085        1.105
  YS02001751           JUNCTION        2.21          0.378        0.822
  YS02001754           JUNCTION        3.19          0.584        0.566
  YS02001762           JUNCTION        5.17          0.842        0.308
  YS02001765           JUNCTION        5.06          0.792        0.308
  YS02001767           JUNCTION        4.78          0.753        0.277
  YS02001770           JUNCTION        4.22          0.717        0.203
  YS02001774           JUNCTION        5.13          0.820        0.230
  YS02001779           JUNCTION        3.09          0.556        0.124
  YS02001759           JUNCTION        5.23          0.878        0.332
  YS02001619           JUNCTION        1.97          0.315        0.295
  YS02001629           JUNCTION        1.96          0.315        0.155
  YS02001641           JUNCTION        5.11          0.806        0.294
  YS02001644           JUNCTION        5.12          0.811        0.109
  YS02001652           JUNCTION        3.40          0.616        0.514
  YS02001655           JUNCTION        2.33          0.392        0.808
  YS02001658           JUNCTION        0.77          0.100        1.200
  YS02001622           JUNCTION        2.08          0.340        0.280
  YS02001633           JUNCTION        5.01          0.770        0.290
  YS02001649           JUNCTION        5.19          0.852        0.198
  YS02001757           JUNCTION        5.36          0.981        0.229
  YS02001625           JUNCTION        3.67          0.640        0.140
  YS02163301           JUNCTION        4.32          0.727        0.303
  YS02163601           JUNCTION        5.19          0.846        0.234
  YS02164001           JUNCTION        5.06          0.785        0.315
  YS02001647           JUNCTION        3.56          0.633        0.267
  YS02001790           JUNCTION        0.71          0.950        0.207
  YS02001791           JUNCTION        0.84          0.728        1.192
  YS02001793           JUNCTION        1.05          1.520        1.080
  
  
  *********************
  Node Flooding Summary
  *********************
  
  Flooding refers to all water that overflows a node, whether it ponds or not.
  --------------------------------------------------------------------------
                                                             Total   Maximum
                                 Maximum   Time of Max       Flood    Ponded
                        Hours       Rate    Occurrence      Volume     Depth
  Node                 Flooded       LPS   days hr:min    10^6 ltr    Meters
  --------------------------------------------------------------------------
  WS02006256              0.01    406.11      0  00:00       0.001     0.000
  JK-storage              0.39    125.51      0  02:58       0.055     0.000
  XR-storage              2.55     95.72      0  05:16       0.459     0.000
  
  
  **********************
  Storage Volume Summary
  **********************
  
  --------------------------------------------------------------------------------------------------
                         Average     Avg  Evap Exfil       Maximum     Max    Time of Max    Maximum
                          Volume    Pcnt  Pcnt  Pcnt        Volume    Pcnt     Occurrence    Outflow
  Storage Unit           1000 m3    Full  Loss  Loss       1000 m3    Full    days hr:min        LPS
  --------------------------------------------------------------------------------------------------
  JK-storage               0.094      32     0     0         0.291     100       0  02:55     600.00
  CC-storage               1.517      10     0     0         3.459      22       0  07:50     200.00
  XR-storage               0.690      75     0     0         0.926     100       0  05:16     285.00
  
  
  ***********************
  Outfall Loading Summary
  ***********************
  
  -----------------------------------------------------------
                         Flow       Avg       Max       Total
                         Freq      Flow      Flow      Volume
  Outfall Node           Pcnt       LPS       LPS    10^6 ltr
  -----------------------------------------------------------
  WSC                   99.99    498.78    758.63      12.070
  3                     85.51    139.95    597.65       2.138
  4                      0.00      0.00      0.00       0.000
  5                      0.00      0.00      0.00       0.000
  -----------------------------------------------------------
  System                46.37    638.73    994.42      14.208
  
  
  ********************
  Link Flow Summary
  ********************
  
  -----------------------------------------------------------------------------
                                 Maximum  Time of Max   Maximum    Max/    Max/
                                  |Flow|   Occurrence   |Veloc|    Full    Full
  Link                 Type          LPS  days hr:min     m/sec    Flow   Depth
  -----------------------------------------------------------------------------
  WS02003066WSF200     CONDUIT    494.07     0  02:39      2.67    0.08    0.22
  WS02006287WS02006284 CONDUIT    216.54     0  02:17      1.65    0.10    0.22
  WS02006284WS02006280 CONDUIT    216.64     0  02:18      1.89    0.09    0.20
  WS02006280WS02006229 CONDUIT    216.64     0  02:18      3.04    0.05    0.15
  WS02006229WS02006228 CONDUIT    493.50     0  02:31      0.98    1.63    1.00
  WS02006256WS02006235 CONDUIT    177.52     0  00:01      2.73    1.88    1.00
  WS02006253WS02006251 CONDUIT     42.45     0  02:16      0.50    0.13    0.65
  WS02006252WS02006251 CONDUIT    200.28     0  02:21      1.97    0.74    0.76
  WS02006251WS02006249 CONDUIT    237.67     0  02:24      0.98    0.69    0.65
  WS02006249WS02006248 CONDUIT    236.30     0  02:25      1.05    1.29    0.63
  WS02006248WS02006247 CONDUIT    235.10     0  02:26      1.02    0.51    0.66
  WS02006247WS02006245 CONDUIT    236.58     0  02:41      0.98    1.88    0.70
  WS02006245WS02006243 CONDUIT    240.18     0  02:41      1.03    0.71    0.72
  WS02006243WS02006242 CONDUIT    247.14     0  02:41      0.84    0.53    0.82
  WS02006242WS02006240 CONDUIT    253.52     0  02:41      0.79    1.01    0.88
  WS02006240WS02006239 CONDUIT    260.79     0  02:40      0.85    0.82    0.87
  WS02006239WS02006238 CONDUIT    267.25     0  02:40      0.76    0.86    0.96
  WS02006238WS02006235 CONDUIT    270.69     0  02:40      1.32    0.60    0.99
  WS02006235WS02006234 CONDUIT    318.10     0  03:11      0.95    3.36    0.93
  WS02006234WS02006232 CONDUIT    318.46     0  03:11      1.17    0.64    0.97
  WS02006232WS02006231 CONDUIT    318.75     0  03:12      0.94    0.67    0.93
  WS02006231WS02006230 CONDUIT    319.36     0  03:12      1.29    4.84    0.84
  WS02006230WS02006229 CONDUIT    330.63     0  03:12      0.86    7.36    1.00
  WS02006228WS02006109 CONDUIT    493.50     0  02:31      0.98    2.16    1.00
  WS02006116WS02004401 CONDUIT    497.00     0  02:33      0.73    0.69    0.81
  WS02006115WS02006116 CONDUIT    498.06     0  02:33      0.83    0.64    0.73
  WS02006113WS02006111 CONDUIT    511.74     0  02:32      2.39    0.61    0.44
  WS02006112WS02006115 CONDUIT    499.94     0  02:32      0.70    0.30    0.85
  WS02006111WS02006112 CONDUIT    497.20     0  02:32      1.40    0.24    0.67
  WS02006110WS02006113 CONDUIT    494.90     0  02:31      1.19    0.45    0.77
  WS02006109WS02006110 CONDUIT    494.74     0  02:31      0.99    0.95    0.99
  WS02004411WS02004412 CONDUIT    494.29     0  02:38      0.89    0.70    0.67
  WS02004401WS02004402 CONDUIT    496.53     0  02:35      0.71    0.60    0.83
  WS02004413WS02003067 CONDUIT    494.02     0  02:39      1.06    0.21    0.57
  WS02004412WS02004413 CONDUIT    494.12     0  02:39      0.78    0.33    0.75
  WS02004410WS02004411 CONDUIT    494.62     0  02:38      0.90    0.68    0.66
  WS02004409WS02004410 CONDUIT    495.29     0  02:36      0.93    0.64    0.64
  WS02004407WS02004409 CONDUIT    496.38     0  02:36      1.42    0.18    0.46
  WS02004406WS02004407 CONDUIT    496.41     0  02:36      0.99    0.22    0.61
  WS02004405WS02004406 CONDUIT    496.45     0  02:35      0.65    0.98    0.93
  WS02004404WS02004405 CONDUIT    496.42     0  02:35      0.65    4.86    0.93
  WS02004403WS02004404 CONDUIT    496.26     0  02:35      0.67    0.36    0.90
  WS02004402WS02004403 CONDUIT    496.44     0  02:35      0.69    0.71    0.85
  WS02004139WS02001211 CONDUIT    285.53     0  03:29      0.80    0.36    0.52
  WS02004138WS02004139 CONDUIT    290.01     0  00:00      3.34    0.06    0.38
  WS02003067WS02003066 CONDUIT    494.04     0  02:39      1.15    0.16    0.40
  WS02001213WS02003059 CONDUIT    293.77     0  03:28      0.80    0.48    0.69
  WS02001212WS02001213 CONDUIT    293.34     0  03:28      1.19    0.45    0.39
  WS02001211WS02001212 CONDUIT    293.11     0  03:29      0.67    0.22    0.57
  WS02003072WS02003073 CONDUIT    756.83     0  02:37      1.60    1.63    0.44
  WS02003069WS02003072 CONDUIT    756.85     0  02:37      1.51    0.36    0.45
  WS02003060WS02003069 CONDUIT    756.59     0  02:36      1.77    0.30    0.40
  WS02003059WS02003060 CONDUIT    294.35     0  03:28      0.82    0.19    0.59
  HS02004901HS02004770 CONDUIT     10.92     0  02:14      0.05    0.04    0.33
  HS02004876HS02004881 CONDUIT     36.84     0  02:17      0.58    0.39    0.09
  HS02004870HS02004876 CONDUIT     29.28     0  02:18      0.41    0.02    0.10
  HS02004842HS02004848 CONDUIT      5.68     0  02:30      0.03    0.00    0.28
  HS02004837HS02004842 CONDUIT      5.87     0  02:31      0.41    0.00    0.29
  HS02004830HS02004837 CONDUIT     24.65     0  02:17      0.45    0.02    0.08
  HS02004824HS02004830 CONDUIT     24.80     0  02:18      0.49    0.03    0.07
  HS02004817HS02004824 CONDUIT     40.27     0  02:21      0.17    0.02    0.40
  HS02004770HS02004777 CONDUIT     55.51     0  02:13      0.23    0.10    0.34
  HS02004799HS02004480 CONDUIT    137.26     0  02:16      0.61    0.17    0.32
  HS02004792HS02004799 CONDUIT    125.46     0  02:15      0.70    0.08    0.26
  HS02004788HS02004792 CONDUIT     73.03     0  02:16      0.85    0.05    0.12
  HS02004785HS02004788 CONDUIT     55.13     0  02:16      0.53    0.42    0.15
  HS02004777HS02004785 CONDUIT     55.08     0  02:15      0.28    0.07    0.28
  HS02004480HS02004478 CONDUIT    162.08     0  02:16      0.98    0.68    0.24
  HS02004479HS02004480 CONDUIT     25.40     0  02:18      0.16    0.02    0.31
  HS02004862HS02004870 CONDUIT     21.39     0  02:19      0.48    0.02    0.06
  HS02004848HS02004852 CONDUIT      8.69     0  02:18      0.32    0.01    0.04
  HS02004856HS02004862 CONDUIT     14.51     0  02:18      0.35    0.01    0.06
  HS02004852HS02004856 CONDUIT      8.65     0  02:19      0.13    0.01    0.09
  HS02004802HS02004478 CONDUIT     56.03     0  02:21      0.31    0.05    0.26
  HS02004478WS02006287 CONDUIT    216.52     0  02:17      1.35    0.06    0.18
  HS02004817HS02004807 CONDUIT     41.45     0  02:23      0.12    0.02    0.52
  HS02004807HS02004802 CONDUIT     55.62     0  02:20      0.26    0.11    0.31
  YS02001759YS02001757 CONDUIT    213.28     0  02:53      0.27    0.15    1.00
  YS02001762YS02001759 CONDUIT    113.98     0  02:51      0.18    0.13    1.00
  YS02001765YS02001762 CONDUIT    117.85     0  02:37      0.23    0.11    1.00
  YS02001770YS02001767 CONDUIT    123.75     0  02:44      0.30    0.49    1.00
  YS02001774YS02001770 CONDUIT     50.18     0  04:41      0.14    0.03    1.00
  YS02001779YS02001774 CONDUIT     50.30     0  04:41      0.07    0.03    1.00
  YS02001649YS02001757 CONDUIT    321.00     0  02:59      0.41    0.19    1.00
  YS02001767YS02001765 CONDUIT    117.18     0  02:44      0.25    0.15    1.00
  YS02006561YS02001783 CONDUIT    351.12     0  02:55      1.84    0.18    0.53
  YS02001783YS02001784 CONDUIT    374.51     0  02:57      1.28    0.52    0.79
  YS02001784YS02001785 CONDUIT    365.19     0  02:59      1.36    0.85    0.84
  YS02001788YS02001790 CONDUIT    374.40     0  02:58      1.92    0.28    0.94
  YS02001790YS02001791 CONDUIT    374.74     0  02:58      2.27    0.41    1.00
  YS02001791YS02001793 CONDUIT    374.76     0  02:58      4.51    0.16    1.00
  YS02001910YS02001907 CONDUIT    108.18     0  03:01      0.49    0.06    0.76
  YS02001786YS02001788 CONDUIT    378.05     0  02:58      1.83    0.73    0.86
  YS02001915YS02001910 CONDUIT    107.96     0  03:01      0.45    0.05    0.55
  YS02001918YS02001915 CONDUIT     36.52     0  03:03      0.44    0.02    0.27
  YS02001923YS02001920 CONDUIT     33.69     0  03:02      0.47    0.02    0.15
  YS02001926YS02001923 CONDUIT     33.65     0  03:01      0.51    0.05    0.14
  YS02001929YS02001926 CONDUIT     33.67     0  03:01      0.54    0.02    0.13
  YS02001920YS02001918 CONDUIT     36.54     0  03:02      0.48    0.04    0.15
  YS02001629YS02163301 CONDUIT    104.38     0  02:54      0.13    0.13    1.00
  YS02001619YS02001622 CONDUIT     82.53     0  02:54      0.66    0.12    1.00
  YS02001622YS02001625 CONDUIT    119.29     0  05:02      0.25    0.06    1.00
  YS02001625YS02001629 CONDUIT    118.66     0  05:02      0.25    0.06    1.00
  YS02163301YS02001633 CONDUIT     95.92     0  03:15      0.12    0.09    1.00
  YS02163601YS02164001 CONDUIT    153.38     0  03:05      0.20    0.14    1.00
  YS02164001YS02001641 CONDUIT    155.01     0  03:05      0.20    0.21    1.00
  YS02001641YS02001644 CONDUIT    160.79     0  03:03      0.20    0.52    1.00
  YS02001647YS02001649 CONDUIT    245.90     0  03:05      0.32    0.13    1.00
  YS02006553YS02006556 CONDUIT    236.36     0  02:55      0.34    0.20    0.84
  YS02006556YS02006558 CONDUIT    236.67     0  02:55      0.33    0.19    0.87
  YSB6556YSB1171       CONDUIT     13.75     0  02:19      0.06    0.01    0.58
  YS02001907YS02006553 CONDUIT    236.30     0  02:55      0.27    0.28    0.96
  YS02006558YS02006561 CONDUIT    354.32     0  02:54      2.41    0.78    0.52
  YS02001633YS02163601 CONDUIT    155.78     0  03:01      0.20    0.16    1.00
  YS02001644YS02001647 CONDUIT    241.00     0  03:03      0.31    0.14    1.00
  YS02001745YS02001748 CONDUIT    174.30     0  05:12      1.42    0.07    0.86
  YS02001748YS02001751 CONDUIT    180.79     0  05:06      1.10    0.09    1.00
  YS02001751YS02001754 CONDUIT    122.65     0  03:10      0.97    0.06    1.00
  YS02001754YS02001757 CONDUIT    102.69     0  02:51      0.33    0.04    1.00
  YS02001882YS02001884 CONDUIT      4.18     0  02:09      0.06    0.00    0.49
  YS02001884YS02001887 CONDUIT     11.61     0  02:06      0.06    0.02    0.58
  YS02001890YS02001895 CONDUIT    130.52     0  02:45      0.30    0.06    0.55
  YS02001895YS02001898 CONDUIT    130.17     0  02:45      0.48    0.23    0.41
  YS02001898YS02001901 CONDUIT    129.86     0  02:46      0.34    0.08    0.49
  YS02001901YS02001904 CONDUIT    129.69     0  02:47      0.30    0.20    0.54
  YS02001904YS02001907 CONDUIT    129.53     0  02:49      0.22    0.05    0.70
  YS02001887YS02001890 CONDUIT    130.86     0  02:41      0.25    0.22    0.63
  YS02001652YS02001649 CONDUIT    129.28     0  02:37      0.32    0.06    1.00
  YS02001655YS02001652 CONDUIT    124.71     0  02:52      1.04    0.06    1.00
  YS02001658YS02001655 CONDUIT    144.43     0  05:17      1.27    0.06    1.00
  YS02001661YS02001658 CONDUIT    163.25     0  05:03      1.48    0.06    0.88
  YS02001664YS02001661 CONDUIT     93.34     0  02:45      1.16    0.03    0.58
  YSB1154YSB6556       CONDUIT     13.53     0  02:17      0.19    0.02    0.47
  YSB1174YSB1171       CONDUIT     12.43     0  02:10      0.06    0.02    0.59
  YSB1171HS02004479    CONDUIT     25.16     0  02:17      0.54    0.02    0.46
  HS02004881HS02006253 CONDUIT     41.20     0  02:17      1.70    0.01    0.11
  YS02001793JiankangQianchi CONDUIT    608.80     0  02:49     12.96    0.05    1.00
  YS02001757CaochengTiaoxuchi CONDUIT    583.26     0  02:57      1.24    0.26    1.00
  WSF200WS02003060     CONDUIT    494.40     0  02:39      1.70    0.11    0.31
  1                    CONDUIT    758.63     0  02:38      3.09    0.26    0.35
  2                    CONDUIT      0.00     0  00:00      0.00    0.00    0.00
  3                    CONDUIT    597.65     0  00:00     10.05    0.95    0.86
  4                    CONDUIT      0.00     0  00:00      0.00    0.00    0.00
  CC-Pump-1            PUMP       200.00     0  02:21              1.00
  CC-Pump-2            PUMP         0.00     0  00:00              0.00
  JK-Pump-1            PUMP       300.00     0  00:00              1.00
  JK-Pump-2            PUMP       300.00     0  00:00              1.00
  XR-Pump-1            PUMP        95.00     0  02:20              1.00
  XR-Pump-2            PUMP        95.00     0  00:00              1.00
  XR-Pump-3            PUMP        95.00     0  00:00              1.00
  XR-Pump-4            PUMP        95.00     0  00:00              1.00
  
  
  ***************************
  Flow Classification Summary
  ***************************
  
  -------------------------------------------------------------------------------------
                      Adjusted    ---------- Fraction of Time in Flow Class ---------- 
                       /Actual         Up    Down  Sub   Sup   Up    Down  Norm  Inlet 
  Conduit               Length    Dry  Dry   Dry   Crit  Crit  Crit  Crit  Ltd   Ctrl  
  -------------------------------------------------------------------------------------
  WS02003066WSF200        1.00   0.09  0.00  0.00  0.00  0.91  0.00  0.00  0.67  0.00
  WS02006287WS02006284    1.00   0.04  0.02  0.00  0.62  0.32  0.00  0.00  0.77  0.00
  WS02006284WS02006280    1.00   0.05  0.00  0.00  0.00  0.00  0.00  0.95  0.00  0.00
  WS02006280WS02006229    1.00   0.05  0.00  0.00  0.00  0.00  0.00  0.95  0.00  0.00
  WS02006229WS02006228    1.00   0.00  0.00  0.00  0.98  0.00  0.00  0.02  0.00  0.00
  WS02006256WS02006235    1.00   0.00  0.00  0.00  0.99  0.01  0.00  0.00  0.00  0.00
  WS02006253WS02006251    1.00   0.03  0.01  0.00  0.95  0.00  0.00  0.00  0.00  0.00
  WS02006252WS02006251    1.00   0.10  0.25  0.00  0.00  0.00  0.65  0.00  0.00  0.00
  WS02006251WS02006249    1.00   0.00  0.00  0.00  1.00  0.00  0.00  0.00  0.63  0.00
  WS02006249WS02006248    1.00   0.00  0.02  0.00  0.57  0.00  0.41  0.00  0.00  0.00
  WS02006248WS02006247    1.00   0.02  0.00  0.00  0.96  0.00  0.00  0.01  0.53  0.00
  WS02006247WS02006245    1.00   0.02  0.00  0.00  0.95  0.00  0.00  0.02  0.00  0.00
  WS02006245WS02006243    1.00   0.02  0.00  0.00  0.92  0.00  0.00  0.06  0.02  0.00
  WS02006243WS02006242    1.00   0.01  0.01  0.00  0.98  0.00  0.00  0.00  0.27  0.00
  WS02006242WS02006240    1.00   0.01  0.00  0.00  0.99  0.00  0.00  0.00  0.00  0.00
  WS02006240WS02006239    1.00   0.00  0.00  0.00  0.94  0.00  0.00  0.06  0.02  0.00
  WS02006239WS02006238    1.00   0.00  0.00  0.00  1.00  0.00  0.00  0.00  0.00  0.00
  WS02006238WS02006235    1.00   0.00  0.00  0.00  1.00  0.00  0.00  0.00  0.00  0.00
  WS02006235WS02006234    1.00   0.00  0.00  0.00  0.93  0.00  0.07  0.00  0.00  0.00
  WS02006234WS02006232    1.00   0.00  0.00  0.00  1.00  0.00  0.00  0.00  0.00  0.00
  WS02006232WS02006231    1.00   0.00  0.00  0.00  0.99  0.00  0.01  0.00  0.00  0.00
  WS02006231WS02006230    1.00   0.01  0.00  0.00  0.50  0.00  0.49  0.00  0.00  0.00
  WS02006230WS02006229    1.00   0.00  0.00  0.00  0.98  0.00  0.00  0.02  0.01  0.00
  WS02006228WS02006109    1.00   0.00  0.00  0.00  0.99  0.00  0.00  0.00  0.00  0.00
  WS02006116WS02004401    1.00   0.03  0.00  0.00  0.97  0.00  0.00  0.00  0.00  0.00
  WS02006115WS02006116    1.00   0.03  0.00  0.00  0.96  0.00  0.00  0.02  0.01  0.00
  WS02006113WS02006111    1.00   0.02  0.00  0.00  0.00  0.98  0.00  0.00  0.17  0.00
  WS02006112WS02006115    1.00   0.02  0.00  0.00  0.97  0.00  0.00  0.00  0.00  0.00
  WS02006111WS02006112    1.00   0.02  0.00  0.00  0.97  0.00  0.00  0.00  0.98  0.00
  WS02006110WS02006113    1.00   0.02  0.00  0.00  0.98  0.00  0.00  0.00  0.00  0.00
  WS02006109WS02006110    1.00   0.00  0.02  0.00  0.98  0.00  0.00  0.00  0.00  0.00
  WS02004411WS02004412    1.00   0.06  0.00  0.00  0.94  0.00  0.00  0.00  0.00  0.00
  WS02004401WS02004402    1.00   0.03  0.00  0.00  0.97  0.00  0.00  0.00  0.00  0.00
  WS02004413WS02003067    1.00   0.06  0.02  0.00  0.00  0.00  0.92  0.00  0.00  0.00
  WS02004412WS02004413    1.00   0.06  0.00  0.00  0.94  0.00  0.00  0.00  0.03  0.00
  WS02004410WS02004411    1.00   0.06  0.00  0.00  0.94  0.00  0.00  0.00  0.01  0.00
  WS02004409WS02004410    1.00   0.06  0.00  0.00  0.94  0.00  0.00  0.00  0.00  0.00
  WS02004407WS02004409    1.00   0.06  0.00  0.00  0.94  0.00  0.00  0.00  0.80  0.00
  WS02004406WS02004407    1.00   0.00  0.06  0.00  0.94  0.00  0.00  0.00  0.00  0.00
  WS02004405WS02004406    1.00   0.00  0.00  0.00  1.00  0.00  0.00  0.00  0.02  0.00
  WS02004404WS02004405    1.00   0.00  0.00  0.00  1.00  0.00  0.00  0.00  0.00  0.00
  WS02004403WS02004404    1.00   0.00  0.03  0.00  0.97  0.00  0.00  0.00  0.02  0.00
  WS02004402WS02004403    1.00   0.03  0.00  0.00  0.97  0.00  0.00  0.00  0.00  0.00
  WS02004139WS02001211    1.00   0.00  0.00  0.00  0.99  0.00  0.01  0.00  0.00  0.00
  WS02004138WS02004139    1.00   0.00  0.00  0.00  0.98  0.01  0.00  0.00  1.00  0.00
  WS02003067WS02003066    1.00   0.08  0.01  0.00  0.91  0.00  0.00  0.00  0.00  0.00
  WS02001213WS02003059    1.00   0.00  0.00  0.00  0.99  0.00  0.00  0.00  0.00  0.00
  WS02001212WS02001213    1.00   0.01  0.00  0.00  0.55  0.00  0.44  0.00  0.00  0.00
  WS02001211WS02001212    1.00   0.00  0.01  0.00  0.99  0.00  0.00  0.00  0.00  0.00
  WS02003072WS02003073    1.00   0.00  0.00  0.00  0.00  0.00  0.00  1.00  0.00  0.00
  WS02003069WS02003072    1.00   0.00  0.00  0.00  0.99  0.01  0.00  0.00  0.57  0.00
  WS02003060WS02003069    1.00   0.00  0.00  0.00  0.96  0.04  0.00  0.00  0.06  0.00
  WS02003059WS02003060    1.00   0.00  0.00  0.00  0.99  0.01  0.00  0.00  0.01  0.00
  HS02004901HS02004770    1.00   0.05  0.00  0.00  0.95  0.00  0.00  0.00  0.02  0.00
  HS02004876HS02004881    1.00   0.02  0.00  0.00  0.98  0.00  0.00  0.00  0.00  0.00
  HS02004870HS02004876    1.00   0.01  0.00  0.00  0.99  0.00  0.00  0.00  0.95  0.00
  HS02004842HS02004848    1.00   0.00  0.05  0.00  0.95  0.00  0.00  0.00  0.68  0.00
  HS02004837HS02004842    1.00   0.00  0.00  0.00  0.99  0.01  0.00  0.00  0.11  0.00
  HS02004830HS02004837    1.00   0.00  0.00  0.00  1.00  0.00  0.00  0.00  0.99  0.00
  HS02004824HS02004830    1.00   0.00  0.00  0.00  1.00  0.00  0.00  0.00  0.00  0.00
  HS02004817HS02004824    1.00   0.00  0.00  0.00  1.00  0.00  0.00  0.00  1.00  0.00
  HS02004770HS02004777    1.00   0.00  0.05  0.00  0.95  0.00  0.00  0.00  0.07  0.00
  HS02004799HS02004480    1.00   0.01  0.02  0.00  0.94  0.00  0.04  0.00  0.00  0.00
  HS02004792HS02004799    1.00   0.00  0.00  0.00  0.98  0.02  0.00  0.00  0.98  0.00
  HS02004788HS02004792    1.00   0.00  0.00  0.00  0.98  0.02  0.00  0.00  0.98  0.00
  HS02004785HS02004788    1.00   0.00  0.00  0.00  1.00  0.00  0.00  0.00  0.00  0.00
  HS02004777HS02004785    1.00   0.00  0.00  0.00  1.00  0.00  0.00  0.00  0.20  0.00
  HS02004480HS02004478    1.00   0.05  0.00  0.00  0.67  0.00  0.00  0.27  0.00  0.00
  HS02004479HS02004480    1.00   0.03  0.00  0.00  0.97  0.00  0.00  0.00  0.15  0.00
  HS02004862HS02004870    1.00   0.00  0.00  0.00  1.00  0.00  0.00  0.00  0.06  0.00
  HS02004848HS02004852    1.00   0.05  0.00  0.00  0.95  0.00  0.00  0.00  0.71  0.00
  HS02004856HS02004862    1.00   0.00  0.08  0.00  0.92  0.00  0.00  0.00  0.75  0.00
  HS02004852HS02004856    1.00   0.05  0.01  0.00  0.94  0.00  0.00  0.00  0.83  0.00
  HS02004802HS02004478    1.00   0.05  0.01  0.00  0.94  0.00  0.00  0.00  0.01  0.00
  HS02004478WS02006287    1.00   0.06  0.00  0.00  0.84  0.10  0.00  0.00  0.77  0.00
  HS02004817HS02004807    1.00   0.00  0.05  0.00  0.95  0.00  0.00  0.00  0.00  0.00
  HS02004807HS02004802    1.00   0.05  0.00  0.00  0.95  0.00  0.00  0.00  0.01  0.00
  YS02001759YS02001757    1.00   0.00  0.00  0.00  1.00  0.00  0.00  0.00  0.17  0.00
  YS02001762YS02001759    1.00   0.00  0.00  0.00  1.00  0.00  0.00  0.00  0.04  0.00
  YS02001765YS02001762    1.00   0.00  0.00  0.00  1.00  0.00  0.00  0.00  0.22  0.00
  YS02001770YS02001767    1.00   0.00  0.00  0.00  1.00  0.00  0.00  0.00  0.00  0.00
  YS02001774YS02001770    1.00   0.00  0.05  0.00  0.94  0.00  0.00  0.00  0.07  0.00
  YS02001779YS02001774    1.00   0.00  0.00  0.00  1.00  0.00  0.00  0.00  0.26  0.00
  YS02001649YS02001757    1.00   0.00  0.00  0.00  1.00  0.00  0.00  0.00  0.19  0.00
  YS02001767YS02001765    1.00   0.00  0.00  0.00  1.00  0.00  0.00  0.00  0.01  0.00
  YS02006561YS02001783    1.00   0.08  0.00  0.00  0.14  0.78  0.00  0.00  0.73  0.00
  YS02001783YS02001784    1.00   0.00  0.08  0.00  0.92  0.00  0.00  0.00  0.00  0.00
  YS02001784YS02001785    1.00   0.00  0.00  0.00  1.00  0.00  0.00  0.00  0.25  0.00
  YS02001788YS02001790    1.00   0.00  0.00  0.00  0.29  0.71  0.00  0.00  0.77  0.00
  YS02001790YS02001791    1.00   0.00  0.00  0.00  0.25  0.75  0.00  0.00  0.43  0.00
  YS02001791YS02001793    1.00   0.00  0.00  0.00  0.26  0.74  0.00  0.00  0.02  0.00
  YS02001910YS02001907    1.00   0.00  0.00  0.00  0.97  0.00  0.00  0.02  0.13  0.00
  YS02001786YS02001788    1.00   0.00  0.00  0.00  0.26  0.74  0.00  0.00  0.00  0.00
  YS02001915YS02001910    1.00   0.00  0.00  0.00  1.00  0.00  0.00  0.00  0.24  0.00
  YS02001918YS02001915    1.00   0.00  0.01  0.00  0.98  0.01  0.00  0.00  0.82  0.00
  YS02001923YS02001920    1.00   0.00  0.00  0.00  1.00  0.00  0.00  0.00  1.00  0.00
  YS02001926YS02001923    1.00   0.00  0.04  0.00  0.00  0.00  0.96  0.00  0.00  0.00
  YS02001929YS02001926    1.00   0.00  0.05  0.00  0.95  0.00  0.00  0.00  0.87  0.00
  YS02001920YS02001918    1.00   0.00  0.01  0.00  0.99  0.00  0.00  0.00  0.00  0.00
  YS02001629YS02163301    1.00   0.07  0.00  0.00  0.93  0.00  0.00  0.00  0.00  0.00
  YS02001619YS02001622    1.00   0.05  0.00  0.00  0.95  0.00  0.00  0.00  0.00  0.00
  YS02001622YS02001625    1.00   0.05  0.00  0.00  0.95  0.00  0.00  0.00  0.13  0.00
  YS02001625YS02001629    1.00   0.05  0.03  0.00  0.89  0.00  0.02  0.00  0.00  0.00
  YS02163301YS02001633    1.00   0.00  0.07  0.00  0.93  0.00  0.00  0.00  0.00  0.00
  YS02163601YS02164001    1.00   0.00  0.04  0.00  0.96  0.00  0.00  0.00  0.00  0.00
  YS02164001YS02001641    1.00   0.02  0.02  0.00  0.96  0.00  0.00  0.00  0.07  0.00
  YS02001641YS02001644    1.00   0.00  0.01  0.00  0.99  0.00  0.00  0.00  0.00  0.00
  YS02001647YS02001649    1.00   0.00  0.08  0.00  0.92  0.00  0.00  0.00  0.01  0.00
  YS02006553YS02006556    1.00   0.02  0.00  0.00  0.98  0.00  0.00  0.00  0.03  0.00
  YS02006556YS02006558    1.00   0.00  0.01  0.00  0.99  0.00  0.00  0.00  0.00  0.00
  YSB6556YSB1171          1.00   0.03  0.02  0.00  0.95  0.00  0.00  0.00  0.00  0.00
  YS02001907YS02006553    1.00   0.01  0.02  0.00  0.98  0.00  0.00  0.00  0.00  0.00
  YS02006558YS02006561    1.00   0.08  0.00  0.00  0.00  0.92  0.00  0.00  0.69  0.00
  YS02001633YS02163601    1.00   0.00  0.01  0.00  0.99  0.00  0.00  0.00  0.19  0.00
  YS02001644YS02001647    1.00   0.00  0.08  0.00  0.92  0.00  0.00  0.00  0.00  0.00
  YS02001745YS02001748    1.00   0.00  0.00  0.00  0.84  0.02  0.00  0.15  0.23  0.00
  YS02001748YS02001751    1.00   0.00  0.00  0.00  0.96  0.04  0.00  0.00  0.24  0.00
  YS02001751YS02001754    1.00   0.00  0.00  0.00  0.91  0.00  0.00  0.09  0.02  0.00
  YS02001754YS02001757    1.00   0.00  0.00  0.00  0.99  0.01  0.00  0.00  0.26  0.00
  YS02001882YS02001884    1.00   0.06  0.00  0.00  0.93  0.00  0.00  0.00  0.00  0.00
  YS02001884YS02001887    1.00   0.03  0.01  0.00  0.95  0.00  0.00  0.00  0.00  0.00
  YS02001890YS02001895    1.00   0.01  0.07  0.00  0.93  0.00  0.00  0.00  0.00  0.00
  YS02001895YS02001898    1.00   0.07  0.00  0.00  0.92  0.00  0.01  0.00  0.00  0.00
  YS02001898YS02001901    1.00   0.07  0.00  0.00  0.93  0.00  0.00  0.00  0.02  0.00
  YS02001901YS02001904    1.00   0.07  0.00  0.00  0.93  0.00  0.00  0.00  0.00  0.00
  YS02001904YS02001907    1.00   0.01  0.06  0.00  0.93  0.00  0.00  0.00  0.00  0.00
  YS02001887YS02001890    1.00   0.00  0.00  0.00  0.97  0.00  0.02  0.00  0.00  0.00
  YS02001652YS02001649    1.00   0.00  0.00  0.00  1.00  0.00  0.00  0.00  0.25  0.00
  YS02001655YS02001652    1.00   0.00  0.00  0.00  0.91  0.00  0.00  0.09  0.02  0.00
  YS02001658YS02001655    1.00   0.00  0.06  0.00  0.90  0.04  0.00  0.00  0.11  0.00
  YS02001661YS02001658    1.00   0.06  0.00  0.00  0.83  0.11  0.00  0.00  0.26  0.00
  YS02001664YS02001661    1.00   0.05  0.00  0.00  0.68  0.27  0.00  0.00  0.64  0.00
  YSB1154YSB6556          1.00   0.05  0.00  0.00  0.95  0.00  0.00  0.00  0.02  0.00
  YSB1174YSB1171          1.00   0.03  0.01  0.00  0.96  0.00  0.00  0.00  0.00  0.00
  YSB1171HS02004479       1.00   0.03  0.00  0.00  0.97  0.00  0.00  0.00  0.13  0.00
  HS02004881HS02006253    1.00   0.03  0.00  0.00  0.49  0.01  0.00  0.47  0.30  0.00
  YS02001793JiankangQianchi    1.00   0.00  0.00  0.00  0.43  0.56  0.00  0.00  0.10  0.00
  YS02001757CaochengTiaoxuchi    1.00   0.00  0.10  0.00  0.90  0.00  0.00  0.00  0.00  0.00
  WSF200WS02003060        1.00   0.00  0.09  0.00  0.79  0.13  0.00  0.00  0.37  0.00
  1                       1.00   0.00  0.00  0.00  0.00  1.00  0.00  0.00  0.21  0.00
  2                       1.00   1.00  0.00  0.00  0.00  0.00  0.00  0.00  0.00  0.00
  3                       1.00   0.14  0.00  0.00  0.00  0.86  0.00  0.00  0.00  0.00
  4                       1.00   1.00  0.00  0.00  0.00  0.00  0.00  0.00  0.00  0.00
  
  
  *************************
  Conduit Surcharge Summary
  *************************
  
  ----------------------------------------------------------------------------
                                                           Hours        Hours 
                         --------- Hours Full --------   Above Full   Capacity
  Conduit                Both Ends  Upstream  Dnstream   Normal Flow   Limited
  ----------------------------------------------------------------------------
  WS02006229WS02006228        0.69      0.77      0.69      2.39         0.69
  WS02006256WS02006235        5.67      5.67      7.83      5.33         0.01
  WS02006249WS02006248        0.01      0.01      0.01      2.21         0.01
  WS02006247WS02006245        0.01      0.01      0.01      2.39         0.01
  WS02006242WS02006240        0.01      0.01      0.01      0.02         0.01
  WS02006238WS02006235        0.01      0.01      0.09      0.01         0.01
  WS02006235WS02006234        0.01      0.01      0.01      5.69         0.01
  WS02006234WS02006232        0.01      0.01      0.20      0.01         0.01
  WS02006232WS02006231        0.01      0.01      0.20      0.01         0.01
  WS02006231WS02006230        0.01      0.01      0.01      5.65         0.01
  WS02006230WS02006229        1.41      2.33      1.41      5.72         1.41
  WS02006228WS02006109        0.73      1.03      0.73      2.72         0.73
  WS02006112WS02006115        0.01      0.01      0.12      0.01         0.01
  WS02006111WS02006112        0.01      0.01      2.40      0.01         0.01
  WS02006110WS02006113        0.01      0.01      0.86      0.01         0.01
  WS02006109WS02006110        0.01      0.01      1.03      0.01         0.01
  WS02004404WS02004405        0.01      0.01      0.01      5.63         0.01
  WS02003072WS02003073        0.01      0.01      0.01      2.59         0.01
  YS02001759YS02001757        5.23      5.23      5.36      0.01         0.01
  YS02001762YS02001759        5.17      5.17      5.23      0.01         0.01
  YS02001765YS02001762        5.06      5.06      5.17      0.01         0.01
  YS02001770YS02001767        4.60      4.61      4.78      0.01         0.45
  YS02001774YS02001770        4.22      4.22      5.13      0.01         0.01
  YS02001779YS02001774        3.09      3.09      5.13      0.01         0.01
  YS02001649YS02001757        5.19      5.19      5.36      0.01         0.01
  YS02001767YS02001765        4.78      4.78      5.06      0.01         0.01
  YS02001788YS02001790        0.01      0.01      0.71      0.01         0.01
  YS02001790YS02001791        0.71      0.71      0.84      0.01         0.01
  YS02001791YS02001793        0.84      0.84      1.12      0.01         0.01
  YS02001629YS02163301        4.09      4.09      4.32      0.01         0.01
  YS02001619YS02001622        1.97      1.97      2.08      0.01         0.01
  YS02001622YS02001625        2.08      2.08      3.67      0.01         0.01
  YS02001625YS02001629        1.96      1.96      3.67      0.01         0.01
  YS02163301YS02001633        4.32      4.32      5.08      0.01         0.01
  YS02163601YS02164001        5.06      5.06      5.19      0.01         0.01
  YS02164001YS02001641        5.06      5.06      5.11      0.01         0.01
  YS02001641YS02001644        5.11      5.11      5.12      0.01         0.41
  YS02001647YS02001649        3.56      3.56      5.19      0.01         0.01
  YS02001633YS02163601        5.01      5.01      5.19      0.01         0.01
  YS02001644YS02001647        3.56      3.56      5.12      0.01         0.01
  YS02001745YS02001748        0.01      0.01      0.67      0.01         0.01
  YS02001748YS02001751        1.18      1.18      2.21      0.01         0.01
  YS02001751YS02001754        2.21      2.21      3.19      0.01         0.01
  YS02001754YS02001757        3.61      3.61      5.36      0.01         0.01
  YS02001652YS02001649        3.72      3.72      5.19      0.01         0.01
  YS02001655YS02001652        2.33      2.33      3.40      0.01         0.01
  YS02001658YS02001655        0.77      0.77      2.33      0.01         0.01
  YS02001661YS02001658        0.01      0.01      0.77      0.01         0.01
  YS02001793JiankangQianchi        1.05      1.05      1.93      0.01         0.01
  YS02001757CaochengTiaoxuchi        1.60      1.60      5.36      0.01         0.01
  3                           0.01      0.01      0.01      0.01         0.01
  
  
  ***************
  Pumping Summary
  ***************
  
  ---------------------------------------------------------------------------------------------------------
                                                  Min       Avg       Max     Total     Power    % Time Off
                        Percent   Number of      Flow      Flow      Flow    Volume     Usage    Pump Curve
  Pump                 Utilized   Start-Ups       LPS       LPS       LPS  10^6 ltr     Kw-hr    Low   High
  ---------------------------------------------------------------------------------------------------------
  CC-Pump-1               34.86           2      0.00    180.14    200.00     1.756      5.72    0.0   32.8
  CC-Pump-2                0.00           0      0.00      0.00      0.00     0.000      0.00    0.0    0.0
  JK-Pump-1               76.59           3      0.00    103.51    300.00     1.446     25.11    0.0    0.0
  JK-Pump-2               95.74           3      0.00    173.39    300.00     3.114     41.21    0.0    0.0
  XR-Pump-1               27.65           2      0.00     81.38     95.00     0.627      7.10    0.0    0.0
  XR-Pump-2               38.31           3      0.00     71.75     95.00     0.884     15.04    0.0    0.0
  XR-Pump-3               93.62           4      0.00     86.64     95.00     2.337     24.76    0.0    0.0
  XR-Pump-4               97.87           3      0.00     87.23     95.00     2.451     26.54    0.0    0.0
  

  Analysis begun on:  Tue Dec 21 17:07:02 2021
  Analysis ended on:  Tue Dec 21 17:07:04 2021
  Total elapsed time: 00:00:02