
  EPA STORM WATER MANAGEMENT MODEL - VERSION 5.1 (Build 5.3.0.dev0)
  --------------------------------------------------------------

  WARNING 04: minimum elevation drop used for Conduit WS02004404WS02004405
  WARNING 03: negative offset ignored for Link YS02001904YS02001907
  
  *********************************************************
  NOTE: The summary statistics displayed in this report are
  based on results found at every computational time step,  
  not just on results from each reporting time step.
  *********************************************************
  
  ****************
  Analysis Options
  ****************
  Flow Units ............... LPS
  Process Models:
    Rainfall/Runoff ........ YES
    RDII ................... NO
    Snowmelt ............... NO
    Groundwater ............ NO
    Flow Routing ........... YES
    Ponding Allowed ........ NO
    Water Quality .......... NO
  Infiltration Method ...... HORTON
  Flow Routing Method ...... DYNWAVE
  Surcharge Method ......... EXTRAN
  Starting Date ............ 08/28/2015 08:00:00
  Ending Date .............. 08/28/2015 15:50:00
  Antecedent Dry Days ...... 8.0
  Report Time Step ......... 00:01:00
  Wet Time Step ............ 00:01:00
  Dry Time Step ............ 00:01:00
  Routing Time Step ........ 5.00 sec
  Variable Time Step ....... YES
  Maximum Trials ........... 8
  Number of Threads ........ 4
  Head Tolerance ........... 0.001500 m
  
  
  **************************        Volume         Depth
  Runoff Quantity Continuity     hectare-m            mm
  **************************     ---------       -------
  Total Precipitation ......         2.737         5.993
  Evaporation Loss .........         0.000         0.000
  Infiltration Loss ........         0.688         1.506
  Surface Runoff ...........         1.163         2.547
  Final Storage ............         0.887         1.941
  Continuity Error (%) .....        -0.018
  
  
  **************************        Volume        Volume
  Flow Routing Continuity        hectare-m      10^6 ltr
  **************************     ---------     ---------
  Dry Weather Inflow .......         0.616         6.165
  Wet Weather Inflow .......         1.163        11.626
  Groundwater Inflow .......         0.000         0.000
  RDII Inflow ..............         0.000         0.000
  External Inflow ..........         0.102         1.024
  External Outflow .........         1.420        14.196
  Flooding Loss ............         0.052         0.518
  Evaporation Loss .........         0.000         0.000
  Exfiltration Loss ........         0.000         0.000
  Initial Stored Volume ....         0.076         0.761
  Final Stored Volume ......         0.599         5.994
  Continuity Error (%) .....        -5.791
  
  
  *************************
  Highest Continuity Errors
  *************************
  Node JK-storage (-32.93%)
  Node HS02004842 (28.25%)
  Node YS02001884 (22.36%)
  Node YS02001774 (20.70%)
  Node YSB1171 (6.84%)
  
  
  ***************************
  Time-Step Critical Elements
  ***************************
  Link WS02006252WS02006251 (47.27%)
  Link 3 (42.79%)
  Link YS02001793JiankangQianchi (2.48%)
  Link WS02006280WS02006229 (2.26%)
  
  
  ********************************
  Highest Flow Instability Indexes
  ********************************
  Link WS02006113WS02006111 (54)
  Link WS02006111WS02006112 (20)
  Link YS02006558YS02006561 (18)
  Link YS02001629YS02163301 (10)
  Link YS02164001YS02001641 (10)
  
  
  *************************
  Routing Time Step Summary
  *************************
  Minimum Time Step           :     0.50 sec
  Average Time Step           :     1.13 sec
  Maximum Time Step           :     5.00 sec
  Percent in Steady State     :    -0.00
  Average Iterations per Step :     3.00
  Percent Not Converging      :    11.01
  
  
  ***************************
  Subcatchment Runoff Summary
  ***************************
  
  ------------------------------------------------------------------------------------------------------------------------------
                            Total      Total      Total      Total     Imperv       Perv      Total       Total     Peak  Runoff
                           Precip      Runon       Evap      Infil     Runoff     Runoff     Runoff      Runoff   Runoff   Coeff
  Subcatchment                 mm         mm         mm         mm         mm         mm         mm    10^6 ltr      LPS
  ------------------------------------------------------------------------------------------------------------------------------
  sub0                       5.99       0.00       0.00       0.42       4.31       0.00       4.31        0.00     1.60   0.719
  sub1                       5.99       0.00       0.00       0.66       4.08       0.00       4.08        0.03     8.14   0.681
  sub2                       5.99       0.00       0.00       2.22       2.87       0.00       2.87        0.03     7.15   0.479
  sub3                       5.99       0.00       0.00       2.22       2.84       0.00       2.84        0.06    14.58   0.473
  sub4                       5.99       0.00       0.00       0.66       3.94       0.00       3.94        0.08    16.23   0.658
  sub5                       5.99       0.00       0.00       0.42       4.26       0.00       4.26        0.05    14.47   0.711
  sub7                       5.99       0.00       0.00       0.54       4.20       0.00       4.20        0.01     5.17   0.701
  sub8                       5.99       0.00       0.00       0.54       4.19       0.00       4.19        0.03     9.08   0.699
  sub9                       5.99       0.00       0.00       0.54       4.19       0.00       4.19        0.02     6.72   0.699
  sub10                      5.99       0.00       0.00       0.48       4.22       0.00       4.22        0.05    14.48   0.705
  sub11                      5.99       0.00       0.00       0.48       4.24       0.00       4.24        0.05    17.11   0.707
  sub12                      5.99       0.00       0.00       0.78       4.03       0.00       4.03        0.04    14.66   0.672
  sub14                      5.99       0.00       0.00       0.54       4.19       0.00       4.19        0.04    13.13   0.699
  sub15                      5.99       0.00       0.00       1.80       3.22       0.00       3.22        0.06    17.78   0.537
  sub16                      5.99       0.00       0.00       1.98       3.10       0.00       3.10        0.03    12.85   0.517
  sub17                      5.99       0.00       0.00       1.92       3.14       0.00       3.14        0.03    10.35   0.524
  sub22                      5.99       0.00       0.00       2.58       2.63       0.00       2.63        0.17    58.61   0.438
  sub23                      5.99       0.00       0.00       2.22       2.91       0.00       2.91        0.14    49.95   0.485
  sub60                      5.99       0.00       0.00       0.72       2.84       0.00       2.84        0.86    79.26   0.473
  sub61                      5.99       0.00       0.00       1.02       3.03       0.00       3.03        0.94   100.33   0.506
  sub62                      5.99       0.00       0.00       0.48       3.25       0.00       3.25        1.00   102.25   0.543
  sub63                      5.99       0.00       0.00       1.74       2.70       0.00       2.70        0.82    94.01   0.451
  sub64                      5.99       0.00       0.00       0.90       2.71       0.00       2.71        0.82    75.25   0.453
  sub65                      5.99       0.00       0.00       0.78       2.75       0.00       2.75        0.84    76.32   0.458
  sub66                      5.99       0.00       0.00       1.74       2.37       0.00       2.37        0.73    69.14   0.395
  sub67                      5.99       0.00       0.00       0.48       3.57       0.00       3.57        1.10   132.46   0.596
  sub68                      5.99       0.00       0.00       0.84       3.23       0.00       3.23        0.99   111.20   0.538
  sub69                      5.99       0.00       0.00       0.90       3.48       0.00       3.48        0.81   111.68   0.581
  sub70                      5.99       3.55       0.00       3.25       4.28       0.00       4.28        0.98    88.41   0.448
  sub71                      5.99       0.00       0.00       0.48       3.11       0.00       3.11        0.73    71.14   0.519
  sub72                      5.99       0.00       0.00       0.42       2.20       0.00       2.20        0.45    33.50   0.367
  sub73                      5.99       4.16       0.00       3.45       4.36       0.00       4.36        1.02    75.96   0.429
  sub74                      5.99       0.00       0.00       4.49       1.05       0.00       1.05        0.42    62.58   0.175
  
  
  ******************
  Node Depth Summary
  ******************
  
  ---------------------------------------------------------------------------------
                                 Average  Maximum  Maximum  Time of Max    Reported
                                   Depth    Depth      HGL   Occurrence   Max Depth
  Node                 Type       Meters   Meters   Meters  days hr:min      Meters
  ---------------------------------------------------------------------------------
  WS02001211           JUNCTION     0.64     0.71     5.55     0  03:21        0.71
  WS02001212           JUNCTION     0.36     0.43     5.49     0  03:20        0.43
  WS02001213           JUNCTION     0.58     0.67     5.43     0  03:19        0.67
  WS02003069           JUNCTION     0.40     0.52     5.10     0  02:36        0.52
  WS02003072           JUNCTION     0.46     0.58     4.95     0  02:37        0.58
  WS02003073           JUNCTION     0.27     0.35     4.42     0  02:37        0.35
  WS02003060           JUNCTION     0.36     0.46     5.39     0  02:35        0.46
  WS02003066           JUNCTION     0.21     0.29     5.84     0  02:38        0.29
  WS02003059           JUNCTION     0.64     0.73     5.42     0  02:34        0.73
  WS02003067           JUNCTION     0.52     0.69     6.01     0  02:38        0.68
  WS02004401           JUNCTION     0.61     0.82     6.82     0  02:34        0.82
  WS02004402           JUNCTION     0.64     0.85     6.81     0  02:34        0.85
  WS02004403           JUNCTION     0.67     0.87     6.80     0  02:35        0.87
  WS02004404           JUNCTION     0.74     0.94     6.79     0  02:35        0.94
  WS02004406           JUNCTION     0.75     0.94     6.77     0  02:35        0.94
  WS02004409           JUNCTION     0.43     0.64     6.41     0  02:37        0.64
  WS02004410           JUNCTION     0.45     0.65     6.37     0  02:37        0.65
  WS02004411           JUNCTION     0.47     0.67     6.35     0  02:38        0.67
  WS02004412           JUNCTION     0.49     0.67     6.31     0  02:38        0.67
  WS02004413           JUNCTION     0.64     0.84     6.31     0  02:38        0.84
  WS02004405           JUNCTION     0.74     0.93     6.78     0  02:35        0.93
  WS02006109           JUNCTION     0.68     0.93     7.55     0  02:31        0.93
  WS02006110           JUNCTION     0.68     0.89     7.48     0  02:31        0.89
  WS02006111           JUNCTION     0.19     0.28     6.98     0  02:31        0.28
  WS02006112           JUNCTION     0.77     1.01     6.89     0  02:33        1.01
  WS02006113           JUNCTION     0.30     0.44     7.33     0  02:31        0.44
  WS02006115           JUNCTION     0.50     0.72     6.86     0  02:34        0.72
  WS02006116           JUNCTION     0.58     0.80     6.84     0  02:34        0.80
  WS02006230           JUNCTION     0.62     0.95     7.69     0  02:31        0.95
  WS02006231           JUNCTION     0.41     0.62     7.74     0  02:31        0.62
  WS02006232           JUNCTION     0.54     0.74     7.78     0  02:32        0.74
  WS02006234           JUNCTION     0.44     0.66     7.82     0  02:32        0.66
  WS02006235           JUNCTION     0.47     0.69     7.85     0  02:33        0.69
  WS02006238           JUNCTION     0.49     0.71     7.86     0  02:33        0.71
  WS02006240           JUNCTION     0.37     0.60     7.90     0  02:33        0.60
  WS02006242           JUNCTION     0.41     0.66     7.93     0  02:34        0.66
  WS02006243           JUNCTION     0.28     0.53     7.95     0  02:34        0.53
  WS02006245           JUNCTION     0.25     0.49     7.98     0  02:34        0.49
  WS02006247           JUNCTION     0.26     0.51     8.01     0  02:35        0.51
  WS02006248           JUNCTION     0.22     0.44     8.03     0  02:35        0.44
  WS02006249           JUNCTION     0.25     0.47     8.06     0  02:35        0.47
  WS02006239           JUNCTION     0.44     0.67     7.88     0  02:33        0.67
  WS02006251           JUNCTION     0.23     0.45     8.12     0  02:35        0.45
  WS02006252           JUNCTION     0.21     0.35     8.59     0  02:20        0.35
  WS02006253           JUNCTION     0.26     0.47     8.12     0  02:35        0.47
  WS02006256           JUNCTION     1.02     2.35     9.28     0  00:00        1.19
  WS02004138           JUNCTION     0.15     0.17     7.42     0  00:00        0.17
  WS02004407           JUNCTION     0.20     0.28     6.60     0  02:35        0.28
  WS02006228           JUNCTION     0.67     0.96     7.61     0  02:31        0.96
  WS02006229           JUNCTION     0.64     0.95     7.64     0  02:30        0.95
  WS02006280           JUNCTION     0.06     0.15     8.42     0  02:17        0.15
  WS02006284           JUNCTION     0.35     0.49     8.89     0  02:17        0.49
  WS02006287           JUNCTION     0.08     0.22     9.18     0  02:16        0.22
  WSF200               JUNCTION     0.19     0.30     5.53     0  02:38        0.30
  HS02004901           JUNCTION     0.11     0.24    10.06     0  02:14        0.24
  HS02004881           JUNCTION     0.01     0.03     9.05     0  02:16        0.03
  HS02004876           JUNCTION     0.04     0.10     9.13     0  02:14        0.10
  HS02004870           JUNCTION     0.01     0.04     9.33     0  02:17        0.04
  HS02004862           JUNCTION     0.01     0.05     9.43     0  02:17        0.05
  HS02004856           JUNCTION     0.07     0.11     9.53     0  02:17        0.11
  HS02004852           JUNCTION     0.01     0.03     9.54     0  02:18        0.03
  HS02004848           JUNCTION     0.01     0.03     9.63     0  02:16        0.03
  HS02004842           JUNCTION     0.33     0.36     9.63     0  02:16        0.36
  HS02004837           JUNCTION     0.03     0.05     9.63     0  02:16        0.05
  HS02004830           JUNCTION     0.04     0.06     9.53     0  02:16        0.06
  HS02004824           JUNCTION     0.02     0.04     9.44     0  02:19        0.04
  HS02004817           JUNCTION     0.42     0.53     9.38     0  02:17        0.53
  HS02004807           JUNCTION     0.11     0.21     9.38     0  02:17        0.21
  HS02004802           JUNCTION     0.15     0.24     9.37     0  02:17        0.24
  HS02004799           JUNCTION     0.11     0.27     9.48     0  02:15        0.27
  HS02004792           JUNCTION     0.03     0.10     9.63     0  02:14        0.10
  HS02004788           JUNCTION     0.02     0.08     9.98     0  02:15        0.08
  HS02004785           JUNCTION     0.04     0.14    10.04     0  02:15        0.14
  HS02004777           JUNCTION     0.14     0.26    10.06     0  02:15        0.26
  HS02004770           JUNCTION     0.11     0.23    10.06     0  02:14        0.23
  HS02004480           JUNCTION     0.07     0.21     9.45     0  02:16        0.21
  HS02004479           JUNCTION     0.10     0.25     9.45     0  02:15        0.25
  HS02004478           JUNCTION     0.05     0.13     9.36     0  02:17        0.13
  YS02001745           JUNCTION     0.22     0.72     8.24     0  07:50        0.72
  YS02001748           JUNCTION     0.55     1.16     8.24     0  07:50        1.16
  YS02001751           JUNCTION     0.72     1.40     8.28     0  05:24        1.36
  YS02001754           JUNCTION     0.97     1.63     8.24     0  07:50        1.63
  YS02001762           JUNCTION     1.16     1.84     8.24     0  07:50        1.84
  YS02001765           JUNCTION     1.12     1.79     8.24     0  07:50        1.79
  YS02001767           JUNCTION     1.08     1.75     8.24     0  07:50        1.75
  YS02001770           JUNCTION     1.08     1.75     8.24     0  07:50        1.75
  YS02001774           JUNCTION     1.14     1.82     8.24     0  07:50        1.82
  YS02001779           JUNCTION     0.90     1.56     8.24     0  07:50        1.56
  YS02001882           JUNCTION     0.30     0.47     7.18     0  02:47        0.47
  YS02001884           JUNCTION     0.40     0.57     7.18     0  02:48        0.57
  YS02001759           JUNCTION     1.20     1.88     8.24     0  07:50        1.88
  YS02001887           JUNCTION     0.47     0.65     7.18     0  02:48        0.65
  YS02001890           JUNCTION     0.50     0.68     7.18     0  02:48        0.68
  YS02001898           JUNCTION     0.27     0.43     7.17     0  02:49        0.43
  YS02001901           JUNCTION     0.39     0.56     7.17     0  02:49        0.56
  YS02001904           JUNCTION     0.37     0.53     7.16     0  02:48        0.53
  YS02001907           JUNCTION     0.70     0.88     7.16     0  02:50        0.88
  YS02001910           JUNCTION     0.49     0.66     7.16     0  02:50        0.66
  YS02001915           JUNCTION     0.29     0.45     7.16     0  02:50        0.45
  YS02001918           JUNCTION     0.08     0.10     7.16     0  03:03        0.10
  YS02001619           JUNCTION     0.69     1.31     8.24     0  07:48        1.31
  YS02001629           JUNCTION     1.03     1.69     8.24     0  07:48        1.69
  YS02001641           JUNCTION     1.13     1.80     8.24     0  07:50        1.80
  YS02001644           JUNCTION     1.14     1.81     8.24     0  07:50        1.81
  YS02001652           JUNCTION     0.98     1.65     8.24     0  07:50        1.65
  YS02001655           JUNCTION     0.75     1.39     8.24     0  07:50        1.39
  YS02001920           JUNCTION     0.18     0.21     7.22     0  03:02        0.21
  YS02001923           JUNCTION     0.07     0.09     7.35     0  03:01        0.09
  YS02001926           JUNCTION     0.14     0.18     7.62     0  03:01        0.18
  YS02001929           JUNCTION     0.07     0.09     7.78     0  03:01        0.09
  YS02001658           JUNCTION     0.49     1.10     8.24     0  07:50        1.10
  YS02001661           JUNCTION     0.31     0.84     8.24     0  07:49        0.84
  YS02001664           JUNCTION     0.09     0.32     8.24     0  07:49        0.32
  YS02001622           JUNCTION     0.71     1.34     8.24     0  07:48        1.34
  YS02001633           JUNCTION     1.12     1.79     8.24     0  07:48        1.79
  YS02001649           JUNCTION     1.17     1.85     8.24     0  07:50        1.85
  YS02001757           JUNCTION     1.30     1.98     8.24     0  07:50        1.98
  YS02001895           JUNCTION     0.27     0.43     7.17     0  02:48        0.43
  YS02001625           JUNCTION     0.98     1.64     8.24     0  07:48        1.64
  YS02163301           JUNCTION     1.06     1.72     8.24     0  07:48        1.72
  YS02163601           JUNCTION     1.17     1.84     8.24     0  07:48        1.84
  YS02164001           JUNCTION     1.11     1.78     8.24     0  07:48        1.78
  YS02001647           JUNCTION     0.97     1.63     8.24     0  07:50        1.63
  YSB1154              JUNCTION     0.24     0.39     9.45     0  02:16        0.39
  YSB6556              JUNCTION     0.14     0.28     9.45     0  02:15        0.28
  YSB1174              JUNCTION     0.20     0.34     9.45     0  02:16        0.34
  YSB1171              JUNCTION     0.39     0.55     9.45     0  02:15        0.55
  YS02006553           JUNCTION     0.70     0.88     7.16     0  02:50        0.88
  YS02006561           JUNCTION     0.15     0.23     6.89     0  02:54        0.23
  YS02006556           JUNCTION     0.67     0.85     7.16     0  02:50        0.85
  YS02006558           JUNCTION     0.72     0.89     7.16     0  02:50        0.89
  YS02001783           JUNCTION     0.28     0.62     6.77     0  02:56        0.60
  YS02001784           JUNCTION     0.32     0.68     6.75     0  02:56        0.67
  YS02001786           JUNCTION     0.29     0.68     6.71     0  02:57        0.67
  YS02001788           JUNCTION     0.24     0.71     6.69     0  02:55        0.71
  YS02001790           JUNCTION     0.33     1.84     7.48     0  02:53        1.01
  YS02001791           JUNCTION     0.32     1.64     7.11     0  02:51        1.16
  YS02001793           JUNCTION     0.44     2.53     7.36     0  02:49        1.78
  WS02004139           JUNCTION     0.58     0.65     5.56     0  03:21        0.65
  WSC                  OUTFALL      0.27     0.35     1.02     0  02:38        0.35
  3                    OUTFALL      0.08     0.23     6.23     0  00:00        0.19
  4                    OUTFALL      0.00     0.00     7.00     0  00:00        0.00
  5                    OUTFALL      0.00     0.00     5.00     0  00:00        0.00
  JK-storage           STORAGE      1.87     5.80     6.60     0  02:55        5.80
  CC-storage           STORAGE      0.55     1.24     8.24     0  07:50        1.24
  XR-storage           STORAGE      5.77     7.72     5.72     0  05:16        7.72
  
  
  *******************
  Node Inflow Summary
  *******************
  
  -------------------------------------------------------------------------------------------------
                                  Maximum  Maximum                  Lateral       Total        Flow
                                  Lateral    Total  Time of Max      Inflow      Inflow     Balance
                                   Inflow   Inflow   Occurrence      Volume      Volume       Error
  Node                 Type           LPS      LPS  days hr:min    10^6 ltr    10^6 ltr     Percent
  -------------------------------------------------------------------------------------------------
  WS02001211           JUNCTION      7.35   292.86     0  03:28       0.207        6.48       0.448
  WS02001212           JUNCTION      0.00   293.09     0  03:29           0        6.45       0.255
  WS02001213           JUNCTION      0.00   293.30     0  03:29           0        6.43       0.291
  WS02003069           JUNCTION      0.32   765.04     0  02:36     0.00902        12.1       0.168
  WS02003072           JUNCTION      0.00   764.97     0  02:36           0        12.1       0.223
  WS02003073           JUNCTION      1.82   766.76     0  02:37      0.0514        12.1       0.237
  WS02003060           JUNCTION     16.53   764.59     0  02:35       0.466        12.1       0.162
  WS02003066           JUNCTION      0.00   497.45     0  02:38           0        5.25       0.057
  WS02003059           JUNCTION      0.00   293.70     0  03:28           0        6.42       0.471
  WS02003067           JUNCTION      0.00   497.43     0  02:38           0        5.26       0.130
  WS02004401           JUNCTION      0.00   500.84     0  02:33           0        5.43       0.293
  WS02004402           JUNCTION      0.00   500.41     0  02:34           0        5.41       0.286
  WS02004403           JUNCTION      0.00   500.14     0  02:34           0         5.4       0.267
  WS02004404           JUNCTION      0.16   500.23     0  02:34     0.00457        5.39       0.209
  WS02004406           JUNCTION      0.00   500.19     0  02:35           0        5.36       0.512
  WS02004409           JUNCTION      0.00   500.16     0  02:35           0        5.33       0.181
  WS02004410           JUNCTION      0.00   499.00     0  02:36           0        5.32       0.218
  WS02004411           JUNCTION      0.00   498.22     0  02:36           0        5.31       0.234
  WS02004412           JUNCTION      0.00   497.76     0  02:37           0         5.3       0.269
  WS02004413           JUNCTION      0.00   497.50     0  02:38           0        5.28       0.422
  WS02004405           JUNCTION      0.04   500.20     0  02:34     0.00107        5.38       0.317
  WS02006109           JUNCTION      1.23   498.78     0  02:31      0.0347        5.49       0.323
  WS02006110           JUNCTION      0.00   498.79     0  02:31           0        5.48       0.267
  WS02006111           JUNCTION      0.00   516.07     0  02:31           0        5.45       0.046
  WS02006112           JUNCTION     10.35   506.77     0  02:31      0.0269        5.48       0.401
  WS02006113           JUNCTION      0.00   498.95     0  02:31           0        5.46       0.106
  WS02006115           JUNCTION      0.00   503.91     0  02:31           0        5.46       0.246
  WS02006116           JUNCTION      0.00   501.85     0  02:32           0        5.44       0.248
  WS02006230           JUNCTION     10.28   329.10     0  03:12        0.29        4.57       0.270
  WS02006231           JUNCTION      0.00   318.26     0  03:12           0        4.28       0.066
  WS02006232           JUNCTION      0.00   318.00     0  03:11           0        4.29       0.274
  WS02006234           JUNCTION      0.00   317.67     0  03:11           0         4.3       0.070
  WS02006235           JUNCTION      0.00   317.50     0  03:11           0        4.33       0.184
  WS02006238           JUNCTION      0.00   268.30     0  02:40           0        1.94       0.221
  WS02006240           JUNCTION      0.00   254.22     0  02:41           0        1.92       0.227
  WS02006242           JUNCTION      0.00   247.68     0  02:41           0        1.92       0.258
  WS02006243           JUNCTION      0.00   240.40     0  02:41           0        1.91      -0.171
  WS02006245           JUNCTION      0.00   236.63     0  02:41           0        1.91       0.122
  WS02006247           JUNCTION      0.00   236.40     0  02:26           0        1.91      -0.006
  WS02006248           JUNCTION      0.00   237.72     0  02:24           0        1.91      -0.074
  WS02006249           JUNCTION      0.00   239.35     0  02:23           0        1.91       0.127
  WS02006239           JUNCTION      0.00   261.75     0  02:40           0        1.93       0.278
  WS02006251           JUNCTION      0.08   242.31     0  02:21     0.00217        1.92      -0.011
  WS02006252           JUNCTION      0.00   200.00     0  02:20           0        1.76       0.008
  WS02006253           JUNCTION      1.60    45.28     0  02:16     0.00349       0.155      -0.199
  WS02006256           JUNCTION      0.00   600.00     0  00:00           0        4.55       0.047
  WS02004138           JUNCTION      0.00   285.00     0  00:00           0         6.3       0.069
  WS02004407           JUNCTION      0.00   500.18     0  02:35           0        5.34       0.085
  WS02006228           JUNCTION      0.00   497.55     0  02:31           0        5.47       0.214
  WS02006229           JUNCTION      0.00   497.56     0  02:30           0        5.48       0.170
  WS02006280           JUNCTION      0.00   230.86     0  02:17           0       0.922       0.007
  WS02006284           JUNCTION      0.10   230.84     0  02:17      0.0027       0.923       0.114
  WS02006287           JUNCTION      0.00   230.71     0  02:17           0       0.921       0.079
  WSF200               JUNCTION      0.00   497.46     0  02:38           0        5.25       0.044
  HS02004901           JUNCTION     12.85    12.85     0  02:09      0.0324      0.0325       5.705
  HS02004881           JUNCTION      5.17    44.07     0  02:16      0.0141       0.149       0.215
  HS02004876           JUNCTION      8.14    39.25     0  02:16      0.0271       0.135       0.391
  HS02004870           JUNCTION      9.08    31.31     0  02:16      0.0268       0.108       0.098
  HS02004862           JUNCTION      7.35    22.88     0  02:17      0.0324      0.0818       0.206
  HS02004856           JUNCTION      6.72    15.60     0  02:16      0.0201      0.0509       2.915
  HS02004852           JUNCTION      0.00     9.33     0  02:16           0      0.0308       0.164
  HS02004848           JUNCTION     14.58    14.58     0  02:19      0.0638      0.0638       0.068
  HS02004842           JUNCTION      0.00     5.80     0  02:28           0       0.046      39.372
  HS02004837           JUNCTION     20.83    25.68     0  02:15       0.226       0.259       0.316
  HS02004830           JUNCTION      0.15    25.81     0  02:16     0.00423       0.249       0.497
  HS02004824           JUNCTION     16.28    41.90     0  02:19      0.0836       0.331       0.163
  HS02004817           JUNCTION      0.60    42.49     0  02:19      0.0169       0.348       5.033
  HS02004807           JUNCTION     17.11    57.99     0  02:18      0.0492        0.38       1.123
  HS02004802           JUNCTION      0.00    58.34     0  02:19           0       0.376       1.091
  HS02004799           JUNCTION     13.13   147.39     0  02:14      0.0398       0.481       0.473
  HS02004792           JUNCTION     58.89   134.59     0  02:14       0.174       0.441       0.093
  HS02004788           JUNCTION     19.45    78.34     0  02:15       0.102       0.269       0.144
  HS02004785           JUNCTION      0.15    59.35     0  02:14     0.00423       0.168       0.288
  HS02004777           JUNCTION      0.03    59.84     0  02:13    0.000846       0.168       3.169
  HS02004770           JUNCTION     49.95    61.25     0  02:11       0.139       0.169       1.862
  HS02004480           JUNCTION      0.00   173.68     0  02:16           0       0.561       0.131
  HS02004479           JUNCTION      0.00    26.95     0  02:16           0      0.0929       0.791
  HS02004478           JUNCTION      0.00   230.71     0  02:17           0       0.922       0.067
  YS02001745           JUNCTION     79.27   144.90     0  05:23        0.86       0.921       1.128
  YS02001748           JUNCTION      0.04   173.11     0  05:18     0.00127       0.944       2.544
  YS02001751           JUNCTION      0.01   167.57     0  05:24     0.00031       0.862       2.847
  YS02001754           JUNCTION      0.26   102.18     0  03:01     0.00733       0.817       3.113
  YS02001762           JUNCTION      0.00   118.77     0  02:36           0       0.931       2.349
  YS02001765           JUNCTION      0.00   124.91     0  02:43           0       0.933       2.700
  YS02001767           JUNCTION      0.54   127.27     0  02:47      0.0151       0.954       3.905
  YS02001770           JUNCTION    102.41   123.82     0  02:46           1        1.05       3.040
  YS02001774           JUNCTION      0.00    54.97     0  04:35           0       0.122      26.103
  YS02001779           JUNCTION      0.01    53.65     0  04:35    0.000141      0.0549      35.874
  YS02001882           JUNCTION      0.00     4.64     0  02:07           0     0.00556      43.700
  YS02001884           JUNCTION      0.00    13.23     0  02:07           0      0.0219      28.806
  YS02001759           JUNCTION    100.37   214.14     0  02:36       0.936        1.83       1.276
  YS02001887           JUNCTION    132.91   132.91     0  02:39        1.12        1.13       0.642
  YS02001890           JUNCTION      0.00   132.59     0  02:38           0         1.1       0.720
  YS02001898           JUNCTION      0.00   131.87     0  02:42           0        1.09       0.203
  YS02001901           JUNCTION      0.00   131.83     0  02:42           0        1.09       0.512
  YS02001904           JUNCTION      0.00   130.99     0  02:47           0        1.09       0.476
  YS02001907           JUNCTION      0.00   236.72     0  02:51           0        2.33       0.956
  YS02001910           JUNCTION      0.00   107.89     0  02:58           0        1.26       0.818
  YS02001915           JUNCTION     71.16   106.85     0  02:59       0.735        1.26       0.365
  YS02001918           JUNCTION      0.00    36.38     0  03:02           0       0.526       0.219
  YS02001619           JUNCTION     69.14    69.14     0  02:53       0.725       0.728       1.697
  YS02001629           JUNCTION      0.00   114.19     0  05:07           0       0.677       4.531
  YS02001641           JUNCTION      0.00   152.85     0  02:56           0        1.39       1.550
  YS02001644           JUNCTION     75.28   233.66     0  02:56       0.825        2.19       1.219
  YS02001652           JUNCTION      0.00   121.96     0  02:41           0       0.757       3.102
  YS02001655           JUNCTION      0.15   168.45     0  03:29     0.00434       0.804       3.179
  YS02001920           JUNCTION      2.87    36.39     0  03:01      0.0809       0.528       0.392
  YS02001923           JUNCTION      0.04    33.53     0  03:01     0.00106       0.448       0.069
  YS02001926           JUNCTION      0.05    33.54     0  03:01     0.00147       0.449       0.491
  YS02001929           JUNCTION     33.50    33.50     0  03:01       0.448       0.448       0.067
  YS02001658           JUNCTION      0.00   146.85     0  05:00           0       0.907       2.707
  YS02001661           JUNCTION      0.00   130.08     0  05:00           0       0.902       2.213
  YS02001664           JUNCTION     94.01    94.01     0  02:41       0.817       0.819       0.444
  YS02001622           JUNCTION      0.00    88.44     0  03:31           0       0.747       4.429
  YS02001633           JUNCTION     76.52   162.29     0  02:52        0.85        1.45       2.212
  YS02001649           JUNCTION      0.00   322.32     0  02:55           0        2.85       1.327
  YS02001757           JUNCTION      0.00   581.38     0  02:54           0        5.37       1.749
  YS02001895           JUNCTION      0.00   131.82     0  02:43           0        1.09       0.347
  YS02001625           JUNCTION      0.00   113.96     0  05:07           0       0.744       5.489
  YS02163301           JUNCTION      0.00   103.52     0  03:32           0       0.627       3.968
  YS02163601           JUNCTION      0.11   156.11     0  02:54      0.0031        1.41       2.180
  YS02164001           JUNCTION      0.00   153.38     0  02:54           0        1.39       1.476
  YS02001647           JUNCTION      0.00   238.58     0  03:03           0        2.15       1.304
  YSB1154              JUNCTION     14.47    14.47     0  02:13      0.0483      0.0497       2.994
  YSB6556              JUNCTION      0.00    14.37     0  02:15           0      0.0507       2.519
  YSB1174              JUNCTION     14.66    14.66     0  02:08      0.0351      0.0362       3.674
  YSB1171              JUNCTION      0.00    26.91     0  02:15           0      0.0924       7.340
  YS02006553           JUNCTION      0.00   236.80     0  02:56           0        2.32       0.620
  YS02006561           JUNCTION      0.00   354.64     0  02:46           0        3.29       0.020
  YS02006556           JUNCTION      0.00   236.80     0  02:55           0        2.33       0.447
  YS02006558           JUNCTION    112.08   347.67     0  02:46        1.02        3.32       0.137
  YS02001783           JUNCTION      0.00   351.46     0  02:54           0        3.29       0.048
  YS02001784           JUNCTION      1.06   381.44     0  02:56      0.0299        3.32       0.077
  YS02001786           JUNCTION      0.06   371.59     0  02:57     0.00159        3.31       0.075
  YS02001788           JUNCTION      0.07   384.70     0  02:57       0.002        3.31       0.044
  YS02001790           JUNCTION      0.15   380.39     0  02:57     0.00437        3.32       0.055
  YS02001791           JUNCTION      0.00   380.58     0  02:57           0        3.31       0.023
  YS02001793           JUNCTION      0.00   418.62     0  02:49           0        3.32       0.004
  WS02004139           JUNCTION      0.32   290.33     0  00:00     0.00905         6.3       0.518
  WSC                  OUTFALL       0.00   766.75     0  02:38           0        12.1       0.000
  3                    OUTFALL       0.00   597.65     0  00:00           0        2.13       0.000
  4                    OUTFALL       0.00     0.00     0  00:00           0           0       0.000 ltr
  5                    OUTFALL       0.00     0.00     0  00:00           0           0       0.000 ltr
  JK-storage           STORAGE       0.00   726.64     0  04:03           0        3.47     -24.774
  CC-storage           STORAGE       0.00   580.88     0  02:55           0        5.27       1.186
  XR-storage           STORAGE     329.03   329.03     0  02:48        7.08        7.68      -0.000
  
  
  **********************
  Node Surcharge Summary
  **********************
  
  Surcharging occurs when water rises above the top of the highest conduit.
  ---------------------------------------------------------------------
                                               Max. Height   Min. Depth
                                   Hours       Above Crown    Below Rim
  Node                 Type      Surcharged         Meters       Meters
  ---------------------------------------------------------------------
  WS02006109           JUNCTION        0.70          0.107        1.713
  WS02006112           JUNCTION        0.14          0.010        1.670
  WS02006232           JUNCTION        0.22          0.041        1.439
  WS02006256           JUNCTION        0.01          1.050        0.000
  WS02006228           JUNCTION        0.65          0.126        2.074
  YS02001748           JUNCTION        0.65          0.084        1.106
  YS02001751           JUNCTION        2.20          0.404        0.796
  YS02001754           JUNCTION        3.18          0.583        0.567
  YS02001762           JUNCTION        5.20          0.841        0.309
  YS02001765           JUNCTION        5.08          0.791        0.309
  YS02001767           JUNCTION        4.78          0.752        0.278
  YS02001770           JUNCTION        4.21          0.716        0.204
  YS02001774           JUNCTION        5.17          0.819        0.231
  YS02001779           JUNCTION        3.09          0.555        0.125
  YS02001759           JUNCTION        5.26          0.877        0.333
  YS02001619           JUNCTION        1.96          0.313        0.297
  YS02001629           JUNCTION        1.96          0.312        0.158
  YS02001641           JUNCTION        5.15          0.804        0.296
  YS02001644           JUNCTION        5.15          0.809        0.111
  YS02001652           JUNCTION        3.42          0.616        0.514
  YS02001655           JUNCTION        2.31          0.392        0.808
  YS02001658           JUNCTION        0.75          0.101        1.199
  YS02001622           JUNCTION        2.07          0.338        0.282
  YS02001633           JUNCTION        5.03          0.767        0.293
  YS02001649           JUNCTION        5.22          0.851        0.199
  YS02001757           JUNCTION        5.38          0.980        0.230
  YS02001625           JUNCTION        3.70          0.638        0.142
  YS02163301           JUNCTION        4.34          0.724        0.306
  YS02163601           JUNCTION        5.21          0.843        0.237
  YS02164001           JUNCTION        5.09          0.783        0.317
  YS02001647           JUNCTION        3.63          0.631        0.269
  YS02001790           JUNCTION        0.70          1.036        0.121
  YS02001791           JUNCTION        0.83          0.837        1.083
  YS02001793           JUNCTION        1.04          1.527        1.073
  
  
  *********************
  Node Flooding Summary
  *********************
  
  Flooding refers to all water that overflows a node, whether it ponds or not.
  --------------------------------------------------------------------------
                                                             Total   Maximum
                                 Maximum   Time of Max       Flood    Ponded
                        Hours       Rate    Occurrence      Volume     Depth
  Node                 Flooded       LPS   days hr:min    10^6 ltr    Meters
  --------------------------------------------------------------------------
  WS02006256              0.01    406.11      0  00:00       0.001     0.000
  JK-storage              0.39    155.92      0  02:57       0.060     0.000
  XR-storage              2.55     96.44      0  05:16       0.457     0.000
  
  
  **********************
  Storage Volume Summary
  **********************
  
  --------------------------------------------------------------------------------------------------
                         Average     Avg  Evap Exfil       Maximum     Max    Time of Max    Maximum
                          Volume    Pcnt  Pcnt  Pcnt        Volume    Pcnt     Occurrence    Outflow
  Storage Unit           1000 m3    Full  Loss  Loss       1000 m3    Full    days hr:min        LPS
  --------------------------------------------------------------------------------------------------
  JK-storage               0.094      32     0     0         0.291     100       0  02:55     600.00
  CC-storage               1.521      10     0     0         3.454      22       0  07:50     200.00
  XR-storage               0.692      75     0     0         0.926     100       0  05:16     285.00
  
  
  ***********************
  Outfall Loading Summary
  ***********************
  
  -----------------------------------------------------------
                         Flow       Avg       Max       Total
                         Freq      Flow      Flow      Volume
  Outfall Node           Pcnt       LPS       LPS    10^6 ltr
  -----------------------------------------------------------
  WSC                   99.99    498.74    766.75      12.064
  3                     85.33    140.20    597.65       2.132
  4                      0.00      0.00      0.00       0.000
  5                      0.00      0.00      0.00       0.000
  -----------------------------------------------------------
  System                46.33    638.94    982.35      14.196
  
  
  ********************
  Link Flow Summary
  ********************
  
  -----------------------------------------------------------------------------
                                 Maximum  Time of Max   Maximum    Max/    Max/
                                  |Flow|   Occurrence   |Veloc|    Full    Full
  Link                 Type          LPS  days hr:min     m/sec    Flow   Depth
  -----------------------------------------------------------------------------
  WS02003066WSF200     CONDUIT    497.46     0  02:38      2.67    0.08    0.22
  WS02006287WS02006284 CONDUIT    230.75     0  02:17      1.68    0.11    0.23
  WS02006284WS02006280 CONDUIT    230.86     0  02:17      1.93    0.10    0.21
  WS02006280WS02006229 CONDUIT    230.87     0  02:17      3.10    0.05    0.15
  WS02006229WS02006228 CONDUIT    497.55     0  02:31      0.99    1.65    1.00
  WS02006256WS02006235 CONDUIT    177.52     0  00:01      2.73    1.88    1.00
  WS02006253WS02006251 CONDUIT     45.43     0  02:16      0.51    0.14    0.65
  WS02006252WS02006251 CONDUIT    200.59     0  02:20      1.97    0.74    0.76
  WS02006251WS02006249 CONDUIT    239.35     0  02:23      0.98    0.69    0.65
  WS02006249WS02006248 CONDUIT    237.72     0  02:24      1.06    1.30    0.63
  WS02006248WS02006247 CONDUIT    236.40     0  02:26      1.03    0.51    0.67
  WS02006247WS02006245 CONDUIT    236.63     0  02:41      0.98    1.88    0.71
  WS02006245WS02006243 CONDUIT    240.40     0  02:41      1.03    0.71    0.72
  WS02006243WS02006242 CONDUIT    247.68     0  02:41      0.84    0.53    0.82
  WS02006242WS02006240 CONDUIT    254.22     0  02:41      0.79    1.01    0.89
  WS02006240WS02006239 CONDUIT    261.75     0  02:40      0.85    0.82    0.88
  WS02006239WS02006238 CONDUIT    268.30     0  02:40      0.76    0.86    0.97
  WS02006238WS02006235 CONDUIT    271.79     0  02:40      1.32    0.61    0.99
  WS02006235WS02006234 CONDUIT    317.67     0  03:11      0.95    3.35    0.94
  WS02006234WS02006232 CONDUIT    318.00     0  03:11      1.17    0.64    0.97
  WS02006232WS02006231 CONDUIT    318.26     0  03:12      0.94    0.67    0.93
  WS02006231WS02006230 CONDUIT    318.83     0  03:12      1.29    4.84    0.85
  WS02006230WS02006229 CONDUIT    330.05     0  03:12      0.86    7.35    1.00
  WS02006228WS02006109 CONDUIT    497.55     0  02:31      0.99    2.17    1.00
  WS02006116WS02004401 CONDUIT    500.84     0  02:33      0.74    0.69    0.81
  WS02006115WS02006116 CONDUIT    501.85     0  02:32      0.83    0.64    0.73
  WS02006113WS02006111 CONDUIT    516.07     0  02:31      2.39    0.62    0.44
  WS02006112WS02006115 CONDUIT    503.91     0  02:31      0.71    0.30    0.85
  WS02006111WS02006112 CONDUIT    501.30     0  02:31      1.41    0.24    0.67
  WS02006110WS02006113 CONDUIT    498.95     0  02:31      1.20    0.45    0.77
  WS02006109WS02006110 CONDUIT    498.79     0  02:31      0.99    0.96    0.99
  WS02004411WS02004412 CONDUIT    497.76     0  02:37      0.89    0.71    0.67
  WS02004401WS02004402 CONDUIT    500.41     0  02:34      0.71    0.60    0.84
  WS02004413WS02003067 CONDUIT    497.43     0  02:38      1.06    0.21    0.57
  WS02004412WS02004413 CONDUIT    497.50     0  02:38      0.78    0.33    0.76
  WS02004410WS02004411 CONDUIT    498.22     0  02:36      0.91    0.68    0.66
  WS02004409WS02004410 CONDUIT    499.00     0  02:36      0.94    0.65    0.65
  WS02004407WS02004409 CONDUIT    500.16     0  02:35      1.43    0.18    0.46
  WS02004406WS02004407 CONDUIT    500.18     0  02:35      1.00    0.22    0.61
  WS02004405WS02004406 CONDUIT    500.19     0  02:35      0.66    0.99    0.93
  WS02004404WS02004405 CONDUIT    500.16     0  02:34      0.65    4.90    0.94
  WS02004403WS02004404 CONDUIT    500.07     0  02:34      0.67    0.36    0.90
  WS02004402WS02004403 CONDUIT    500.14     0  02:34      0.70    0.72    0.86
  WS02004139WS02001211 CONDUIT    285.51     0  03:28      0.80    0.36    0.52
  WS02004138WS02004139 CONDUIT    290.01     0  00:00      3.34    0.06    0.38
  WS02003067WS02003066 CONDUIT    497.45     0  02:38      1.16    0.16    0.41
  WS02001213WS02003059 CONDUIT    293.70     0  03:28      0.80    0.48    0.69
  WS02001212WS02001213 CONDUIT    293.30     0  03:29      1.19    0.45    0.39
  WS02001211WS02001212 CONDUIT    293.09     0  03:29      0.67    0.22    0.57
  WS02003072WS02003073 CONDUIT    764.94     0  02:37      1.61    1.65    0.44
  WS02003069WS02003072 CONDUIT    764.97     0  02:36      1.52    0.37    0.46
  WS02003060WS02003069 CONDUIT    764.72     0  02:36      1.77    0.30    0.41
  WS02003059WS02003060 CONDUIT    294.26     0  03:27      0.82    0.19    0.60
  HS02004901HS02004770 CONDUIT     11.74     0  02:14      0.05    0.04    0.33
  HS02004876HS02004881 CONDUIT     39.36     0  02:16      0.61    0.42    0.09
  HS02004870HS02004876 CONDUIT     31.28     0  02:17      0.43    0.02    0.10
  HS02004842HS02004848 CONDUIT      5.80     0  02:28      0.03    0.00    0.28
  HS02004837HS02004842 CONDUIT      6.02     0  02:29      0.41    0.00    0.29
  HS02004830HS02004837 CONDUIT     25.66     0  02:16      0.46    0.03    0.08
  HS02004824HS02004830 CONDUIT     25.81     0  02:17      0.50    0.03    0.07
  HS02004817HS02004824 CONDUIT     41.89     0  02:19      0.17    0.02    0.41
  HS02004770HS02004777 CONDUIT     59.81     0  02:13      0.25    0.11    0.35
  HS02004799HS02004480 CONDUIT    147.13     0  02:15      0.63    0.19    0.33
  HS02004792HS02004799 CONDUIT    134.51     0  02:14      0.73    0.08    0.27
  HS02004788HS02004792 CONDUIT     78.26     0  02:15      0.87    0.05    0.13
  HS02004785HS02004788 CONDUIT     59.25     0  02:15      0.55    0.45    0.16
  HS02004777HS02004785 CONDUIT     59.20     0  02:14      0.30    0.07    0.28
  HS02004480HS02004478 CONDUIT    173.62     0  02:16      1.01    0.73    0.25
  HS02004479HS02004480 CONDUIT     27.19     0  02:17      0.16    0.03    0.32
  HS02004862HS02004870 CONDUIT     22.83     0  02:17      0.49    0.02    0.07
  HS02004848HS02004852 CONDUIT      9.33     0  02:16      0.33    0.01    0.04
  HS02004856HS02004862 CONDUIT     15.56     0  02:17      0.36    0.02    0.06
  HS02004852HS02004856 CONDUIT      9.28     0  02:18      0.14    0.01    0.10
  HS02004802HS02004478 CONDUIT     58.82     0  02:20      0.32    0.05    0.27
  HS02004478WS02006287 CONDUIT    230.71     0  02:17      1.38    0.06    0.19
  HS02004817HS02004807 CONDUIT     43.15     0  02:21      0.12    0.03    0.53
  HS02004807HS02004802 CONDUIT     58.34     0  02:19      0.27    0.11    0.32
  YS02001759YS02001757 CONDUIT    215.82     0  02:36      0.27    0.15    1.00
  YS02001762YS02001759 CONDUIT    115.04     0  02:36      0.17    0.13    1.00
  YS02001765YS02001762 CONDUIT    118.77     0  02:36      0.23    0.11    1.00
  YS02001770YS02001767 CONDUIT    126.74     0  02:47      0.35    0.50    1.00
  YS02001774YS02001770 CONDUIT     54.97     0  04:35      0.14    0.04    1.00
  YS02001779YS02001774 CONDUIT     53.64     0  04:35      0.09    0.03    1.00
  YS02001649YS02001757 CONDUIT    324.42     0  03:04      0.41    0.20    1.00
  YS02001767YS02001765 CONDUIT    124.91     0  02:43      0.26    0.16    1.00
  YS02006561YS02001783 CONDUIT    351.46     0  02:54      1.84    0.18    0.53
  YS02001783YS02001784 CONDUIT    380.38     0  02:56      1.28    0.52    0.80
  YS02001784YS02001785 CONDUIT    371.53     0  02:57      1.36    0.86    0.85
  YS02001788YS02001790 CONDUIT    380.24     0  02:57      1.92    0.28    0.95
  YS02001790YS02001791 CONDUIT    380.58     0  02:57      2.27    0.41    1.00
  YS02001791YS02001793 CONDUIT    380.60     0  02:57      4.53    0.16    1.00
  YS02001910YS02001907 CONDUIT    108.11     0  02:56      0.49    0.06    0.76
  YS02001786YS02001788 CONDUIT    384.63     0  02:57      1.83    0.74    0.86
  YS02001915YS02001910 CONDUIT    107.89     0  02:58      0.44    0.05    0.55
  YS02001918YS02001915 CONDUIT     36.36     0  03:03      0.44    0.02    0.27
  YS02001923YS02001920 CONDUIT     33.52     0  03:01      0.47    0.02    0.15
  YS02001926YS02001923 CONDUIT     33.49     0  03:01      0.51    0.05    0.14
  YS02001929YS02001926 CONDUIT     33.49     0  03:01      0.54    0.02    0.13
  YS02001920YS02001918 CONDUIT     36.38     0  03:02      0.48    0.04    0.15
  YS02001629YS02163301 CONDUIT    103.52     0  03:32      0.13    0.13    1.00
  YS02001619YS02001622 CONDUIT     88.44     0  03:31      0.69    0.13    1.00
  YS02001622YS02001625 CONDUIT    113.96     0  05:07      0.27    0.06    1.00
  YS02001625YS02001629 CONDUIT    114.19     0  05:07      0.27    0.05    1.00
  YS02163301YS02001633 CONDUIT     87.41     0  03:32      0.11    0.08    1.00
  YS02163601YS02164001 CONDUIT    153.38     0  02:54      0.20    0.14    1.00
  YS02164001YS02001641 CONDUIT    152.85     0  02:56      0.19    0.21    1.00
  YS02001641YS02001644 CONDUIT    158.88     0  03:03      0.20    0.51    1.00
  YS02001647YS02001649 CONDUIT    254.18     0  02:58      0.33    0.13    1.00
  YS02006553YS02006556 CONDUIT    236.80     0  02:55      0.34    0.20    0.84
  YS02006556YS02006558 CONDUIT    237.40     0  02:55      0.33    0.19    0.87
  YSB6556YSB1171       CONDUIT     14.69     0  02:18      0.06    0.02    0.59
  YS02001907YS02006553 CONDUIT    236.80     0  02:56      0.28    0.28    0.96
  YS02006558YS02006561 CONDUIT    354.64     0  02:46      2.41    0.78    0.52
  YS02001633YS02163601 CONDUIT    156.00     0  02:54      0.20    0.16    1.00
  YS02001644YS02001647 CONDUIT    238.58     0  03:03      0.31    0.14    1.00
  YS02001745YS02001748 CONDUIT    173.06     0  05:18      1.43    0.07    0.86
  YS02001748YS02001751 CONDUIT    160.84     0  03:51      1.12    0.08    1.00
  YS02001751YS02001754 CONDUIT    101.92     0  03:01      1.00    0.05    1.00
  YS02001754YS02001757 CONDUIT    121.30     0  03:36      0.33    0.05    1.00
  YS02001882YS02001884 CONDUIT      4.64     0  02:07      0.06    0.01    0.49
  YS02001884YS02001887 CONDUIT     13.23     0  02:07      0.07    0.02    0.58
  YS02001890YS02001895 CONDUIT    131.82     0  02:43      0.30    0.06    0.55
  YS02001895YS02001898 CONDUIT    131.87     0  02:42      0.51    0.23    0.41
  YS02001898YS02001901 CONDUIT    131.83     0  02:42      0.35    0.09    0.49
  YS02001901YS02001904 CONDUIT    130.99     0  02:47      0.30    0.20    0.54
  YS02001904YS02001907 CONDUIT    131.42     0  02:46      0.22    0.05    0.70
  YS02001887YS02001890 CONDUIT    132.59     0  02:38      0.26    0.23    0.64
  YS02001652YS02001649 CONDUIT    140.64     0  03:28      0.35    0.07    1.00
  YS02001655YS02001652 CONDUIT    121.96     0  02:41      1.08    0.06    1.00
  YS02001658YS02001655 CONDUIT    168.29     0  03:29      1.29    0.07    1.00
  YS02001661YS02001658 CONDUIT    146.85     0  05:00      1.49    0.06    0.88
  YS02001664YS02001661 CONDUIT     94.01     0  02:41      1.16    0.03    0.58
  YSB1154YSB6556       CONDUIT     14.37     0  02:15      0.19    0.03    0.48
  YSB1174YSB1171       CONDUIT     13.47     0  02:11      0.06    0.02    0.60
  YSB1171HS02004479    CONDUIT     26.95     0  02:16      0.54    0.02    0.46
  HS02004881HS02006253 CONDUIT     44.06     0  02:16      1.75    0.01    0.11
  YS02001793JiankangQianchi CONDUIT    726.64     0  04:03     13.02    0.06    1.00
  YS02001757CaochengTiaoxuchi CONDUIT    580.88     0  02:55      1.25    0.26    1.00
  WSF200WS02003060     CONDUIT    498.02     0  02:39      1.69    0.11    0.31
  1                    CONDUIT    766.75     0  02:38      3.09    0.27    0.35
  2                    CONDUIT      0.00     0  00:00      0.00    0.00    0.00
  3                    CONDUIT    597.65     0  00:00     10.05    0.95    0.86
  4                    CONDUIT      0.00     0  00:00      0.00    0.00    0.00
  CC-Pump-1            PUMP       200.00     0  02:20              1.00
  CC-Pump-2            PUMP         0.00     0  00:00              0.00
  JK-Pump-1            PUMP       300.00     0  00:00              1.00
  JK-Pump-2            PUMP       300.00     0  00:00              1.00
  XR-Pump-1            PUMP        95.00     0  02:20              1.00
  XR-Pump-2            PUMP        95.00     0  00:00              1.00
  XR-Pump-3            PUMP        95.00     0  00:00              1.00
  XR-Pump-4            PUMP        95.00     0  00:00              1.00
  
  
  ***************************
  Flow Classification Summary
  ***************************
  
  -------------------------------------------------------------------------------------
                      Adjusted    ---------- Fraction of Time in Flow Class ---------- 
                       /Actual         Up    Down  Sub   Sup   Up    Down  Norm  Inlet 
  Conduit               Length    Dry  Dry   Dry   Crit  Crit  Crit  Crit  Ltd   Ctrl  
  -------------------------------------------------------------------------------------
  WS02003066WSF200        1.00   0.09  0.00  0.00  0.00  0.91  0.00  0.00  0.67  0.00
  WS02006287WS02006284    1.00   0.04  0.02  0.00  0.63  0.31  0.00  0.00  0.77  0.00
  WS02006284WS02006280    1.00   0.05  0.00  0.00  0.00  0.00  0.00  0.95  0.00  0.00
  WS02006280WS02006229    1.00   0.05  0.00  0.00  0.00  0.00  0.00  0.95  0.00  0.00
  WS02006229WS02006228    1.00   0.00  0.00  0.00  0.98  0.00  0.00  0.02  0.00  0.00
  WS02006256WS02006235    1.00   0.00  0.00  0.00  0.99  0.01  0.00  0.00  0.00  0.00
  WS02006253WS02006251    1.00   0.03  0.01  0.00  0.95  0.00  0.01  0.00  0.00  0.00
  WS02006252WS02006251    1.00   0.10  0.00  0.00  0.00  0.00  0.90  0.00  0.00  0.00
  WS02006251WS02006249    1.00   0.00  0.00  0.00  1.00  0.00  0.00  0.00  0.62  0.00
  WS02006249WS02006248    1.00   0.00  0.02  0.00  0.57  0.00  0.40  0.00  0.00  0.00
  WS02006248WS02006247    1.00   0.02  0.00  0.00  0.96  0.00  0.00  0.01  0.53  0.00
  WS02006247WS02006245    1.00   0.02  0.00  0.00  0.95  0.00  0.00  0.02  0.00  0.00
  WS02006245WS02006243    1.00   0.02  0.00  0.00  0.92  0.00  0.00  0.06  0.02  0.00
  WS02006243WS02006242    1.00   0.01  0.01  0.00  0.98  0.00  0.00  0.00  0.27  0.00
  WS02006242WS02006240    1.00   0.01  0.00  0.00  0.99  0.00  0.00  0.00  0.00  0.00
  WS02006240WS02006239    1.00   0.00  0.00  0.00  0.94  0.00  0.00  0.06  0.02  0.00
  WS02006239WS02006238    1.00   0.00  0.00  0.00  1.00  0.00  0.00  0.00  0.00  0.00
  WS02006238WS02006235    1.00   0.00  0.00  0.00  1.00  0.00  0.00  0.00  0.00  0.00
  WS02006235WS02006234    1.00   0.00  0.00  0.00  0.93  0.00  0.07  0.00  0.00  0.00
  WS02006234WS02006232    1.00   0.00  0.00  0.00  1.00  0.00  0.00  0.00  0.00  0.00
  WS02006232WS02006231    1.00   0.00  0.00  0.00  0.99  0.00  0.01  0.00  0.00  0.00
  WS02006231WS02006230    1.00   0.01  0.00  0.00  0.50  0.00  0.49  0.00  0.00  0.00
  WS02006230WS02006229    1.00   0.00  0.00  0.00  0.98  0.00  0.00  0.02  0.01  0.00
  WS02006228WS02006109    1.00   0.00  0.00  0.00  0.99  0.00  0.00  0.00  0.00  0.00
  WS02006116WS02004401    1.00   0.03  0.00  0.00  0.97  0.00  0.00  0.00  0.00  0.00
  WS02006115WS02006116    1.00   0.03  0.00  0.00  0.96  0.00  0.00  0.02  0.01  0.00
  WS02006113WS02006111    1.00   0.02  0.00  0.00  0.00  0.98  0.00  0.00  0.17  0.00
  WS02006112WS02006115    1.00   0.02  0.00  0.00  0.97  0.00  0.00  0.00  0.00  0.00
  WS02006111WS02006112    1.00   0.02  0.00  0.00  0.97  0.00  0.00  0.00  0.98  0.00
  WS02006110WS02006113    1.00   0.02  0.00  0.00  0.98  0.00  0.00  0.00  0.00  0.00
  WS02006109WS02006110    1.00   0.00  0.02  0.00  0.98  0.00  0.00  0.00  0.00  0.00
  WS02004411WS02004412    1.00   0.06  0.00  0.00  0.94  0.00  0.00  0.00  0.00  0.00
  WS02004401WS02004402    1.00   0.03  0.00  0.00  0.97  0.00  0.00  0.00  0.00  0.00
  WS02004413WS02003067    1.00   0.07  0.02  0.00  0.00  0.00  0.92  0.00  0.00  0.00
  WS02004412WS02004413    1.00   0.06  0.00  0.00  0.94  0.00  0.00  0.00  0.03  0.00
  WS02004410WS02004411    1.00   0.06  0.00  0.00  0.94  0.00  0.00  0.00  0.01  0.00
  WS02004409WS02004410    1.00   0.06  0.00  0.00  0.94  0.00  0.00  0.00  0.00  0.00
  WS02004407WS02004409    1.00   0.06  0.00  0.00  0.93  0.00  0.00  0.00  0.80  0.00
  WS02004406WS02004407    1.00   0.00  0.06  0.00  0.94  0.00  0.00  0.00  0.00  0.00
  WS02004405WS02004406    1.00   0.00  0.00  0.00  1.00  0.00  0.00  0.00  0.02  0.00
  WS02004404WS02004405    1.00   0.00  0.00  0.00  1.00  0.00  0.00  0.00  0.00  0.00
  WS02004403WS02004404    1.00   0.00  0.03  0.00  0.97  0.00  0.00  0.00  0.02  0.00
  WS02004402WS02004403    1.00   0.03  0.00  0.00  0.97  0.00  0.00  0.00  0.00  0.00
  WS02004139WS02001211    1.00   0.00  0.00  0.00  0.99  0.00  0.01  0.00  0.00  0.00
  WS02004138WS02004139    1.00   0.00  0.00  0.00  0.98  0.01  0.00  0.00  1.00  0.00
  WS02003067WS02003066    1.00   0.08  0.01  0.00  0.91  0.00  0.00  0.00  0.00  0.00
  WS02001213WS02003059    1.00   0.00  0.00  0.00  0.99  0.00  0.00  0.00  0.00  0.00
  WS02001212WS02001213    1.00   0.01  0.00  0.00  0.55  0.00  0.44  0.00  0.00  0.00
  WS02001211WS02001212    1.00   0.00  0.01  0.00  0.99  0.00  0.00  0.00  0.00  0.00
  WS02003072WS02003073    1.00   0.00  0.00  0.00  0.00  0.00  0.00  1.00  0.00  0.00
  WS02003069WS02003072    1.00   0.00  0.00  0.00  0.99  0.01  0.00  0.00  0.57  0.00
  WS02003060WS02003069    1.00   0.00  0.00  0.00  0.96  0.04  0.00  0.00  0.06  0.00
  WS02003059WS02003060    1.00   0.00  0.00  0.00  0.99  0.01  0.00  0.00  0.01  0.00
  HS02004901HS02004770    1.00   0.05  0.00  0.00  0.95  0.00  0.00  0.00  0.03  0.00
  HS02004876HS02004881    1.00   0.02  0.00  0.00  0.98  0.00  0.00  0.00  0.00  0.00
  HS02004870HS02004876    1.00   0.01  0.00  0.00  0.99  0.00  0.00  0.00  0.95  0.00
  HS02004842HS02004848    1.00   0.00  0.05  0.00  0.95  0.00  0.00  0.00  0.69  0.00
  HS02004837HS02004842    1.00   0.00  0.00  0.00  0.99  0.01  0.00  0.00  0.11  0.00
  HS02004830HS02004837    1.00   0.00  0.00  0.00  1.00  0.00  0.00  0.00  0.99  0.00
  HS02004824HS02004830    1.00   0.00  0.00  0.00  1.00  0.00  0.00  0.00  0.00  0.00
  HS02004817HS02004824    1.00   0.00  0.00  0.00  1.00  0.00  0.00  0.00  1.00  0.00
  HS02004770HS02004777    1.00   0.00  0.05  0.00  0.95  0.00  0.00  0.00  0.07  0.00
  HS02004799HS02004480    1.00   0.01  0.02  0.00  0.93  0.00  0.04  0.00  0.00  0.00
  HS02004792HS02004799    1.00   0.00  0.00  0.00  0.98  0.02  0.00  0.00  0.98  0.00
  HS02004788HS02004792    1.00   0.00  0.00  0.00  0.98  0.02  0.00  0.00  0.98  0.00
  HS02004785HS02004788    1.00   0.00  0.00  0.00  1.00  0.00  0.00  0.00  0.00  0.00
  HS02004777HS02004785    1.00   0.00  0.00  0.00  1.00  0.00  0.00  0.00  0.21  0.00
  HS02004480HS02004478    1.00   0.05  0.00  0.00  0.68  0.00  0.00  0.27  0.00  0.00
  HS02004479HS02004480    1.00   0.03  0.00  0.00  0.97  0.00  0.00  0.00  0.16  0.00
  HS02004862HS02004870    1.00   0.00  0.00  0.00  1.00  0.00  0.00  0.00  0.05  0.00
  HS02004848HS02004852    1.00   0.05  0.00  0.00  0.95  0.00  0.00  0.00  0.71  0.00
  HS02004856HS02004862    1.00   0.00  0.08  0.00  0.92  0.00  0.00  0.00  0.74  0.00
  HS02004852HS02004856    1.00   0.05  0.01  0.00  0.94  0.00  0.00  0.00  0.83  0.00
  HS02004802HS02004478    1.00   0.05  0.01  0.00  0.94  0.00  0.00  0.00  0.01  0.00
  HS02004478WS02006287    1.00   0.06  0.00  0.00  0.84  0.10  0.00  0.00  0.76  0.00
  HS02004817HS02004807    1.00   0.00  0.05  0.00  0.95  0.00  0.00  0.00  0.00  0.00
  HS02004807HS02004802    1.00   0.05  0.00  0.00  0.95  0.00  0.00  0.00  0.01  0.00
  YS02001759YS02001757    1.00   0.00  0.00  0.00  1.00  0.00  0.00  0.00  0.17  0.00
  YS02001762YS02001759    1.00   0.00  0.00  0.00  1.00  0.00  0.00  0.00  0.05  0.00
  YS02001765YS02001762    1.00   0.00  0.00  0.00  1.00  0.00  0.00  0.00  0.22  0.00
  YS02001770YS02001767    1.00   0.00  0.00  0.00  1.00  0.00  0.00  0.00  0.00  0.00
  YS02001774YS02001770    1.00   0.00  0.06  0.00  0.94  0.00  0.00  0.00  0.06  0.00
  YS02001779YS02001774    1.00   0.00  0.00  0.00  1.00  0.00  0.00  0.00  0.26  0.00
  YS02001649YS02001757    1.00   0.00  0.00  0.00  1.00  0.00  0.00  0.00  0.19  0.00
  YS02001767YS02001765    1.00   0.00  0.00  0.00  1.00  0.00  0.00  0.00  0.01  0.00
  YS02006561YS02001783    1.00   0.08  0.00  0.00  0.14  0.78  0.00  0.00  0.73  0.00
  YS02001783YS02001784    1.00   0.00  0.08  0.00  0.92  0.00  0.00  0.00  0.00  0.00
  YS02001784YS02001785    1.00   0.00  0.00  0.00  1.00  0.00  0.00  0.00  0.25  0.00
  YS02001788YS02001790    1.00   0.00  0.00  0.00  0.29  0.71  0.00  0.00  0.77  0.00
  YS02001790YS02001791    1.00   0.00  0.00  0.00  0.24  0.76  0.00  0.00  0.42  0.00
  YS02001791YS02001793    1.00   0.00  0.00  0.00  0.26  0.74  0.00  0.00  0.02  0.00
  YS02001910YS02001907    1.00   0.00  0.00  0.00  0.97  0.00  0.00  0.02  0.13  0.00
  YS02001786YS02001788    1.00   0.00  0.00  0.00  0.26  0.74  0.00  0.00  0.00  0.00
  YS02001915YS02001910    1.00   0.00  0.00  0.00  1.00  0.00  0.00  0.00  0.24  0.00
  YS02001918YS02001915    1.00   0.00  0.01  0.00  0.98  0.01  0.00  0.00  0.81  0.00
  YS02001923YS02001920    1.00   0.00  0.00  0.00  1.00  0.00  0.00  0.00  1.00  0.00
  YS02001926YS02001923    1.00   0.00  0.04  0.00  0.00  0.00  0.96  0.00  0.00  0.00
  YS02001929YS02001926    1.00   0.00  0.05  0.00  0.95  0.00  0.00  0.00  0.87  0.00
  YS02001920YS02001918    1.00   0.00  0.01  0.00  0.99  0.00  0.00  0.00  0.00  0.00
  YS02001629YS02163301    1.00   0.07  0.00  0.00  0.92  0.00  0.00  0.00  0.00  0.00
  YS02001619YS02001622    1.00   0.05  0.00  0.00  0.95  0.00  0.00  0.00  0.00  0.00
  YS02001622YS02001625    1.00   0.05  0.00  0.00  0.95  0.00  0.00  0.00  0.13  0.00
  YS02001625YS02001629    1.00   0.05  0.03  0.00  0.90  0.00  0.02  0.00  0.00  0.00
  YS02163301YS02001633    1.00   0.00  0.07  0.00  0.93  0.00  0.00  0.00  0.00  0.00
  YS02163601YS02164001    1.00   0.00  0.04  0.00  0.96  0.00  0.00  0.00  0.00  0.00
  YS02164001YS02001641    1.00   0.02  0.02  0.00  0.96  0.00  0.00  0.00  0.07  0.00
  YS02001641YS02001644    1.00   0.00  0.01  0.00  0.99  0.00  0.00  0.00  0.00  0.00
  YS02001647YS02001649    1.00   0.00  0.08  0.00  0.92  0.00  0.00  0.00  0.01  0.00
  YS02006553YS02006556    1.00   0.02  0.00  0.00  0.98  0.00  0.00  0.00  0.03  0.00
  YS02006556YS02006558    1.00   0.00  0.01  0.00  0.99  0.00  0.00  0.00  0.00  0.00
  YSB6556YSB1171          1.00   0.03  0.02  0.00  0.95  0.00  0.00  0.00  0.00  0.00
  YS02001907YS02006553    1.00   0.01  0.02  0.00  0.98  0.00  0.00  0.00  0.00  0.00
  YS02006558YS02006561    1.00   0.08  0.00  0.00  0.00  0.92  0.00  0.00  0.69  0.00
  YS02001633YS02163601    1.00   0.00  0.01  0.00  0.99  0.00  0.00  0.00  0.20  0.00
  YS02001644YS02001647    1.00   0.00  0.08  0.00  0.92  0.00  0.00  0.00  0.00  0.00
  YS02001745YS02001748    1.00   0.00  0.00  0.00  0.84  0.02  0.00  0.14  0.23  0.00
  YS02001748YS02001751    1.00   0.00  0.00  0.00  0.97  0.03  0.00  0.00  0.24  0.00
  YS02001751YS02001754    1.00   0.00  0.00  0.00  0.91  0.00  0.00  0.09  0.02  0.00
  YS02001754YS02001757    1.00   0.00  0.00  0.00  0.99  0.01  0.00  0.00  0.26  0.00
  YS02001882YS02001884    1.00   0.07  0.00  0.00  0.93  0.00  0.00  0.00  0.00  0.00
  YS02001884YS02001887    1.00   0.03  0.01  0.00  0.95  0.00  0.00  0.00  0.00  0.00
  YS02001890YS02001895    1.00   0.01  0.07  0.00  0.93  0.00  0.00  0.00  0.00  0.00
  YS02001895YS02001898    1.00   0.07  0.00  0.00  0.92  0.00  0.01  0.00  0.00  0.00
  YS02001898YS02001901    1.00   0.07  0.01  0.00  0.92  0.00  0.00  0.00  0.02  0.00
  YS02001901YS02001904    1.00   0.07  0.00  0.00  0.93  0.00  0.00  0.00  0.00  0.00
  YS02001904YS02001907    1.00   0.01  0.06  0.00  0.93  0.00  0.00  0.00  0.00  0.00
  YS02001887YS02001890    1.00   0.00  0.00  0.00  0.97  0.00  0.02  0.00  0.00  0.00
  YS02001652YS02001649    1.00   0.00  0.00  0.00  1.00  0.00  0.00  0.00  0.26  0.00
  YS02001655YS02001652    1.00   0.00  0.00  0.00  0.91  0.00  0.00  0.09  0.02  0.00
  YS02001658YS02001655    1.00   0.00  0.06  0.00  0.90  0.04  0.00  0.00  0.10  0.00
  YS02001661YS02001658    1.00   0.06  0.00  0.00  0.84  0.10  0.00  0.00  0.22  0.00
  YS02001664YS02001661    1.00   0.05  0.00  0.00  0.68  0.27  0.00  0.00  0.64  0.00
  YSB1154YSB6556          1.00   0.05  0.00  0.00  0.95  0.00  0.00  0.00  0.02  0.00
  YSB1174YSB1171          1.00   0.03  0.01  0.00  0.96  0.00  0.00  0.00  0.00  0.00
  YSB1171HS02004479       1.00   0.03  0.00  0.00  0.97  0.00  0.00  0.00  0.13  0.00
  HS02004881HS02006253    1.00   0.03  0.00  0.00  0.49  0.01  0.00  0.47  0.30  0.00
  YS02001793JiankangQianchi    1.00   0.00  0.00  0.00  0.43  0.56  0.00  0.00  0.10  0.00
  YS02001757CaochengTiaoxuchi    1.00   0.00  0.10  0.00  0.90  0.00  0.00  0.00  0.00  0.00
  WSF200WS02003060        1.00   0.00  0.09  0.00  0.78  0.13  0.00  0.00  0.36  0.00
  1                       1.00   0.00  0.00  0.00  0.00  1.00  0.00  0.00  0.21  0.00
  2                       1.00   1.00  0.00  0.00  0.00  0.00  0.00  0.00  0.00  0.00
  3                       1.00   0.15  0.00  0.00  0.00  0.85  0.00  0.00  0.00  0.00
  4                       1.00   1.00  0.00  0.00  0.00  0.00  0.00  0.00  0.00  0.00
  
  
  *************************
  Conduit Surcharge Summary
  *************************
  
  ----------------------------------------------------------------------------
                                                           Hours        Hours 
                         --------- Hours Full --------   Above Full   Capacity
  Conduit                Both Ends  Upstream  Dnstream   Normal Flow   Limited
  ----------------------------------------------------------------------------
  WS02006229WS02006228        0.65      0.75      0.65      2.40         0.65
  WS02006256WS02006235        5.66      5.66      7.83      5.31         0.01
  WS02006249WS02006248        0.01      0.01      0.01      2.22         0.01
  WS02006247WS02006245        0.01      0.01      0.01      2.39         0.01
  WS02006242WS02006240        0.01      0.01      0.01      0.02         0.01
  WS02006238WS02006235        0.01      0.01      0.13      0.01         0.01
  WS02006235WS02006234        0.01      0.01      0.01      5.68         0.01
  WS02006234WS02006232        0.01      0.01      0.22      0.01         0.01
  WS02006232WS02006231        0.01      0.01      0.22      0.01         0.01
  WS02006231WS02006230        0.01      0.01      0.01      5.65         0.01
  WS02006230WS02006229        1.41      2.33      1.41      5.71         1.41
  WS02006228WS02006109        0.70      1.04      0.70      2.72         0.70
  WS02006112WS02006115        0.01      0.01      0.14      0.01         0.01
  WS02006111WS02006112        0.01      0.01      2.41      0.01         0.01
  WS02006110WS02006113        0.01      0.01      0.85      0.01         0.01
  WS02006109WS02006110        0.01      0.01      1.04      0.01         0.01
  WS02004404WS02004405        0.01      0.01      0.01      5.63         0.01
  WS02003072WS02003073        0.01      0.01      0.01      2.59         0.01
  YS02001759YS02001757        5.26      5.26      5.38      0.01         0.01
  YS02001762YS02001759        5.20      5.20      5.26      0.01         0.01
  YS02001765YS02001762        5.08      5.08      5.20      0.01         0.01
  YS02001770YS02001767        4.59      4.60      4.78      0.01         0.58
  YS02001774YS02001770        4.21      4.21      5.17      0.01         0.01
  YS02001779YS02001774        3.09      3.09      5.17      0.01         0.01
  YS02001649YS02001757        5.22      5.22      5.38      0.01         0.01
  YS02001767YS02001765        4.78      4.78      5.08      0.01         0.01
  YS02001788YS02001790        0.01      0.01      0.70      0.01         0.01
  YS02001790YS02001791        0.70      0.70      0.83      0.01         0.01
  YS02001791YS02001793        0.83      0.83      1.11      0.01         0.01
  YS02001629YS02163301        4.11      4.11      4.34      0.01         0.01
  YS02001619YS02001622        1.96      1.96      2.07      0.01         0.01
  YS02001622YS02001625        2.07      2.07      3.70      0.01         0.01
  YS02001625YS02001629        1.96      1.96      3.70      0.01         0.01
  YS02163301YS02001633        4.34      4.34      5.11      0.01         0.01
  YS02163601YS02164001        5.09      5.09      5.21      0.01         0.01
  YS02164001YS02001641        5.09      5.09      5.15      0.01         0.01
  YS02001641YS02001644        5.15      5.15      5.15      0.01         0.45
  YS02001647YS02001649        3.63      3.63      5.22      0.01         0.01
  YS02001633YS02163601        5.03      5.03      5.21      0.01         0.01
  YS02001644YS02001647        3.63      3.63      5.15      0.01         0.01
  YS02001745YS02001748        0.01      0.01      0.65      0.01         0.01
  YS02001748YS02001751        1.18      1.18      2.19      0.01         0.01
  YS02001751YS02001754        2.19      2.19      3.18      0.01         0.01
  YS02001754YS02001757        3.67      3.67      5.38      0.01         0.01
  YS02001652YS02001649        3.74      3.74      5.22      0.01         0.01
  YS02001655YS02001652        2.31      2.31      3.42      0.01         0.01
  YS02001658YS02001655        0.75      0.75      2.31      0.01         0.01
  YS02001661YS02001658        0.01      0.01      0.75      0.01         0.01
  YS02001793JiankangQianchi        1.04      1.04      1.92      0.01         0.01
  YS02001757CaochengTiaoxuchi        1.59      1.59      5.38      0.01         0.01
  3                           0.01      0.01      0.01      0.01         0.01
  
  
  ***************
  Pumping Summary
  ***************
  
  ---------------------------------------------------------------------------------------------------------
                                                  Min       Avg       Max     Total     Power    % Time Off
                        Percent   Number of      Flow      Flow      Flow    Volume     Usage    Pump Curve
  Pump                 Utilized   Start-Ups       LPS       LPS       LPS  10^6 ltr     Kw-hr    Low   High
  ---------------------------------------------------------------------------------------------------------
  CC-Pump-1               34.85           2      0.00    180.39    200.00     1.758      5.71    0.0   32.2
  CC-Pump-2                0.00           0      0.00      0.00      0.00     0.000      0.00    0.0    0.0
  JK-Pump-1               76.60           3      0.00    103.06    300.00     1.436     24.93    0.0    0.0
  JK-Pump-2               95.75           2      0.00    173.64    300.00     3.110     41.40    0.0    0.0
  XR-Pump-1               27.65           2      0.00     81.46     95.00     0.627      7.06    0.0    0.0
  XR-Pump-2               38.30           3      0.00     71.79     95.00     0.884     15.02    0.0    0.0
  XR-Pump-3               93.62           4      0.00     86.66     95.00     2.337     24.71    0.0    0.0
  XR-Pump-4               97.87           3      0.00     87.25     95.00     2.451     26.48    0.0    0.0
  

  Analysis begun on:  Tue Dec 21 17:08:55 2021
  Analysis ended on:  Tue Dec 21 17:08:58 2021
  Total elapsed time: 00:00:03