
  EPA STORM WATER MANAGEMENT MODEL - VERSION 5.1 (Build 5.3.0.dev0)
  --------------------------------------------------------------

  WARNING 04: minimum elevation drop used for Conduit WS02004404WS02004405
  WARNING 03: negative offset ignored for Link YS02001904YS02001907
  
  *********************************************************
  NOTE: The summary statistics displayed in this report are
  based on results found at every computational time step,  
  not just on results from each reporting time step.
  *********************************************************
  
  ****************
  Analysis Options
  ****************
  Flow Units ............... LPS
  Process Models:
    Rainfall/Runoff ........ YES
    RDII ................... NO
    Snowmelt ............... NO
    Groundwater ............ NO
    Flow Routing ........... YES
    Ponding Allowed ........ NO
    Water Quality .......... NO
  Infiltration Method ...... HORTON
  Flow Routing Method ...... DYNWAVE
  Surcharge Method ......... EXTRAN
  Starting Date ............ 08/28/2015 08:00:00
  Ending Date .............. 08/28/2015 15:50:00
  Antecedent Dry Days ...... 8.0
  Report Time Step ......... 00:01:00
  Wet Time Step ............ 00:01:00
  Dry Time Step ............ 00:01:00
  Routing Time Step ........ 5.00 sec
  Variable Time Step ....... YES
  Maximum Trials ........... 8
  Number of Threads ........ 4
  Head Tolerance ........... 0.001500 m
  
  
  **************************        Volume         Depth
  Runoff Quantity Continuity     hectare-m            mm
  **************************     ---------       -------
  Total Precipitation ......         1.477         3.234
  Evaporation Loss .........         0.000         0.000
  Infiltration Loss ........         0.359         0.785
  Surface Runoff ...........         0.385         0.844
  Final Storage ............         0.733         1.606
  Continuity Error (%) .....        -0.015
  
  
  **************************        Volume        Volume
  Flow Routing Continuity        hectare-m      10^6 ltr
  **************************     ---------     ---------
  Dry Weather Inflow .......         0.616         6.165
  Wet Weather Inflow .......         0.385         3.850
  Groundwater Inflow .......         0.000         0.000
  RDII Inflow ..............         0.000         0.000
  External Inflow ..........         0.102         1.024
  External Outflow .........         0.908         9.079
  Flooding Loss ............         0.046         0.461
  Evaporation Loss .........         0.000         0.000
  Exfiltration Loss ........         0.000         0.000
  Initial Stored Volume ....         0.076         0.761
  Final Stored Volume ......         0.289         2.892
  Continuity Error (%) .....        -5.366
  
  
  *************************
  Highest Continuity Errors
  *************************
  Node JK-storage (-48.29%)
  Node HS02004842 (45.24%)
  Node YS02001884 (38.30%)
  Node YS02001774 (36.50%)
  Node YSB1171 (14.79%)
  
  
  ***************************
  Time-Step Critical Elements
  ***************************
  Link WS02006252WS02006251 (46.68%)
  Link YS02001793JiankangQianchi (21.39%)
  Link 3 (12.75%)
  Link WS02006280WS02006229 (8.09%)
  Link WS02006256WS02006235 (2.22%)
  
  
  ********************************
  Highest Flow Instability Indexes
  ********************************
  Link WS02006113WS02006111 (48)
  Link WS02006111WS02006112 (28)
  Link YS02001754YS02001757 (7)
  Link YS02001751YS02001754 (6)
  Link YS02001762YS02001759 (6)
  
  
  *************************
  Routing Time Step Summary
  *************************
  Minimum Time Step           :     0.48 sec
  Average Time Step           :     2.04 sec
  Maximum Time Step           :     5.00 sec
  Percent in Steady State     :     0.00
  Average Iterations per Step :     2.02
  Percent Not Converging      :     0.03
  
  
  ***************************
  Subcatchment Runoff Summary
  ***************************
  
  ------------------------------------------------------------------------------------------------------------------------------
                            Total      Total      Total      Total     Imperv       Perv      Total       Total     Peak  Runoff
                           Precip      Runon       Evap      Infil     Runoff     Runoff     Runoff      Runoff   Runoff   Coeff
  Subcatchment                 mm         mm         mm         mm         mm         mm         mm    10^6 ltr      LPS
  ------------------------------------------------------------------------------------------------------------------------------
  sub0                       3.23       0.00       0.00       0.23       1.74       0.00       1.74        0.00     0.46   0.539
  sub1                       3.23       0.00       0.00       0.36       1.63       0.00       1.63        0.01     2.33   0.503
  sub2                       3.23       0.00       0.00       1.20       1.14       0.00       1.14        0.01     2.05   0.351
  sub3                       3.23       0.00       0.00       1.20       1.11       0.00       1.11        0.02     4.18   0.343
  sub4                       3.23       0.00       0.00       0.36       1.51       0.00       1.51        0.03     4.64   0.468
  sub5                       3.23       0.00       0.00       0.23       1.70       0.00       1.70        0.02     4.15   0.526
  sub7                       3.23       0.00       0.00       0.29       1.69       0.00       1.69        0.01     1.48   0.522
  sub8                       3.23       0.00       0.00       0.29       1.68       0.00       1.68        0.01     2.60   0.520
  sub9                       3.23       0.00       0.00       0.29       1.68       0.00       1.68        0.01     1.93   0.519
  sub10                      3.23       0.00       0.00       0.26       1.69       0.00       1.69        0.02     4.15   0.522
  sub11                      3.23       0.00       0.00       0.26       1.70       0.00       1.70        0.02     4.90   0.526
  sub12                      3.23       0.00       0.00       0.42       1.63       0.00       1.63        0.01     4.19   0.503
  sub14                      3.23       0.00       0.00       0.29       1.68       0.00       1.68        0.02     3.76   0.519
  sub15                      3.23       0.00       0.00       0.97       1.29       0.00       1.29        0.02     5.10   0.398
  sub16                      3.23       0.00       0.00       1.07       1.25       0.00       1.25        0.01     3.67   0.386
  sub17                      3.23       0.00       0.00       1.04       1.27       0.00       1.27        0.01     2.96   0.391
  sub22                      3.23       0.00       0.00       1.39       1.06       0.00       1.06        0.07    16.77   0.327
  sub23                      3.23       0.00       0.00       1.20       1.17       0.00       1.17        0.06    14.30   0.361
  sub60                      3.23       0.00       0.00       0.39       0.90       0.00       0.90        0.27    21.51   0.278
  sub61                      3.23       0.00       0.00       0.55       1.02       0.00       1.02        0.31    27.93   0.315
  sub62                      3.23       0.00       0.00       0.26       1.07       0.00       1.07        0.33    28.31   0.332
  sub63                      3.23       0.00       0.00       0.94       0.93       0.00       0.93        0.28    26.28   0.287
  sub64                      3.23       0.00       0.00       0.49       0.86       0.00       0.86        0.26    20.37   0.265
  sub65                      3.23       0.00       0.00       0.42       0.86       0.00       0.86        0.27    20.60   0.267
  sub66                      3.23       0.00       0.00       0.94       0.76       0.00       0.76        0.23    18.91   0.235
  sub67                      3.23       0.00       0.00       0.26       1.24       0.00       1.24        0.38    37.12   0.384
  sub68                      3.23       0.00       0.00       0.45       1.10       0.00       1.10        0.34    31.04   0.340
  sub69                      3.23       0.00       0.00       0.49       1.25       0.00       1.25        0.29    31.50   0.387
  sub70                      3.23       1.28       0.00       1.53       1.34       0.00       1.34        0.31    21.51   0.297
  sub71                      3.23       0.00       0.00       0.26       1.01       0.00       1.01        0.24    19.52   0.311
  sub72                      3.23       0.00       0.00       0.23       0.64       0.00       0.64        0.13     8.58   0.196
  sub73                      3.23       1.30       0.00       1.54       1.25       0.00       1.25        0.29    18.46   0.276
  sub74                      3.23       0.00       0.00       2.43       0.38       0.00       0.38        0.15    17.72   0.119
  
  
  ******************
  Node Depth Summary
  ******************
  
  ---------------------------------------------------------------------------------
                                 Average  Maximum  Maximum  Time of Max    Reported
                                   Depth    Depth      HGL   Occurrence   Max Depth
  Node                 Type       Meters   Meters   Meters  days hr:min      Meters
  ---------------------------------------------------------------------------------
  WS02001211           JUNCTION     0.55     0.69     5.53     0  01:47        0.69
  WS02001212           JUNCTION     0.30     0.40     5.46     0  01:25        0.40
  WS02001213           JUNCTION     0.50     0.59     5.35     0  01:27        0.59
  WS02003069           JUNCTION     0.31     0.39     4.97     0  04:28        0.39
  WS02003072           JUNCTION     0.38     0.46     4.83     0  04:29        0.46
  WS02003073           JUNCTION     0.22     0.27     4.34     0  04:29        0.27
  WS02003060           JUNCTION     0.28     0.35     5.28     0  04:27        0.35
  WS02003066           JUNCTION     0.16     0.24     5.79     0  03:21        0.24
  WS02003059           JUNCTION     0.56     0.64     5.33     0  01:26        0.64
  WS02003067           JUNCTION     0.43     0.60     5.92     0  03:20        0.60
  WS02004401           JUNCTION     0.51     0.67     6.67     0  03:15        0.67
  WS02004402           JUNCTION     0.54     0.71     6.67     0  03:15        0.71
  WS02004403           JUNCTION     0.56     0.73     6.66     0  03:15        0.73
  WS02004404           JUNCTION     0.64     0.81     6.66     0  03:15        0.81
  WS02004406           JUNCTION     0.65     0.82     6.65     0  03:15        0.82
  WS02004409           JUNCTION     0.32     0.49     6.26     0  03:19        0.49
  WS02004410           JUNCTION     0.34     0.51     6.23     0  03:20        0.51
  WS02004411           JUNCTION     0.36     0.53     6.21     0  03:20        0.53
  WS02004412           JUNCTION     0.38     0.55     6.19     0  03:20        0.55
  WS02004413           JUNCTION     0.53     0.72     6.19     0  03:20        0.72
  WS02004405           JUNCTION     0.64     0.81     6.66     0  03:15        0.81
  WS02006109           JUNCTION     0.57     0.75     7.37     0  03:08        0.75
  WS02006110           JUNCTION     0.58     0.75     7.34     0  03:08        0.75
  WS02006111           JUNCTION     0.15     0.22     6.93     0  03:09        0.22
  WS02006112           JUNCTION     0.65     0.84     6.72     0  03:14        0.84
  WS02006113           JUNCTION     0.23     0.34     7.23     0  03:08        0.34
  WS02006115           JUNCTION     0.39     0.56     6.70     0  03:15        0.56
  WS02006116           JUNCTION     0.47     0.64     6.68     0  03:15        0.64
  WS02006230           JUNCTION     0.48     0.69     7.44     0  03:08        0.69
  WS02006231           JUNCTION     0.30     0.45     7.58     0  03:07        0.45
  WS02006232           JUNCTION     0.42     0.60     7.64     0  03:07        0.59
  WS02006234           JUNCTION     0.32     0.50     7.66     0  03:07        0.50
  WS02006235           JUNCTION     0.35     0.54     7.70     0  03:07        0.53
  WS02006238           JUNCTION     0.37     0.56     7.70     0  03:07        0.56
  WS02006240           JUNCTION     0.25     0.44     7.73     0  03:08        0.44
  WS02006242           JUNCTION     0.29     0.49     7.76     0  03:08        0.49
  WS02006243           JUNCTION     0.18     0.36     7.78     0  03:09        0.36
  WS02006245           JUNCTION     0.17     0.34     7.83     0  03:09        0.34
  WS02006247           JUNCTION     0.19     0.37     7.87     0  03:10        0.37
  WS02006248           JUNCTION     0.15     0.31     7.90     0  03:10        0.31
  WS02006249           JUNCTION     0.19     0.36     7.95     0  03:14        0.36
  WS02006239           JUNCTION     0.31     0.51     7.72     0  03:07        0.50
  WS02006251           JUNCTION     0.17     0.34     8.01     0  03:14        0.34
  WS02006252           JUNCTION     0.16     0.31     8.55     0  03:14        0.31
  WS02006253           JUNCTION     0.20     0.37     8.01     0  03:15        0.37
  WS02006256           JUNCTION     0.78     2.35     9.28     0  00:00        1.19
  WS02004138           JUNCTION     0.12     0.17     7.42     0  00:20        0.17
  WS02004407           JUNCTION     0.15     0.22     6.54     0  03:16        0.22
  WS02006228           JUNCTION     0.55     0.74     7.39     0  03:08        0.74
  WS02006229           JUNCTION     0.51     0.71     7.40     0  03:08        0.71
  WS02006280           JUNCTION     0.05     0.09     8.36     0  02:31        0.09
  WS02006284           JUNCTION     0.33     0.40     8.80     0  02:31        0.40
  WS02006287           JUNCTION     0.07     0.12     9.08     0  02:31        0.12
  WSF200               JUNCTION     0.14     0.22     5.45     0  03:21        0.22
  HS02004901           JUNCTION     0.10     0.16     9.98     0  02:30        0.16
  HS02004881           JUNCTION     0.00     0.01     9.04     0  02:30        0.01
  HS02004876           JUNCTION     0.03     0.07     9.10     0  02:30        0.07
  HS02004870           JUNCTION     0.01     0.02     9.31     0  02:29        0.02
  HS02004862           JUNCTION     0.01     0.02     9.41     0  02:30        0.02
  HS02004856           JUNCTION     0.07     0.09     9.51     0  02:29        0.09
  HS02004852           JUNCTION     0.00     0.01     9.52     0  02:31        0.01
  HS02004848           JUNCTION     0.00     0.01     9.61     0  02:26        0.01
  HS02004842           JUNCTION     0.31     0.34     9.61     0  02:25        0.34
  HS02004837           JUNCTION     0.02     0.03     9.61     0  02:26        0.03
  HS02004830           JUNCTION     0.03     0.04     9.51     0  02:26        0.04
  HS02004824           JUNCTION     0.02     0.02     9.43     0  02:30        0.02
  HS02004817           JUNCTION     0.40     0.46     9.31     0  02:31        0.46
  HS02004807           JUNCTION     0.10     0.14     9.31     0  02:31        0.14
  HS02004802           JUNCTION     0.13     0.18     9.31     0  02:31        0.18
  HS02004799           JUNCTION     0.09     0.16     9.37     0  02:29        0.16
  HS02004792           JUNCTION     0.02     0.05     9.57     0  02:28        0.05
  HS02004788           JUNCTION     0.01     0.04     9.93     0  02:30        0.04
  HS02004785           JUNCTION     0.03     0.07     9.97     0  02:30        0.07
  HS02004777           JUNCTION     0.12     0.18     9.98     0  02:30        0.18
  HS02004770           JUNCTION     0.09     0.15     9.98     0  02:29        0.15
  HS02004480           JUNCTION     0.05     0.11     9.35     0  02:29        0.11
  HS02004479           JUNCTION     0.09     0.15     9.35     0  02:29        0.15
  HS02004478           JUNCTION     0.04     0.07     9.30     0  02:30        0.07
  YS02001745           JUNCTION     0.05     0.06     7.58     0  03:01        0.06
  YS02001748           JUNCTION     0.07     0.19     7.26     0  07:48        0.19
  YS02001751           JUNCTION     0.18     0.39     7.26     0  07:47        0.38
  YS02001754           JUNCTION     0.40     0.66     7.27     0  07:46        0.66
  YS02001762           JUNCTION     0.58     0.86     7.26     0  07:49        0.86
  YS02001765           JUNCTION     0.54     0.82     7.27     0  07:49        0.82
  YS02001767           JUNCTION     0.51     0.77     7.26     0  07:49        0.77
  YS02001770           JUNCTION     0.50     0.77     7.26     0  07:49        0.77
  YS02001774           JUNCTION     0.56     0.84     7.26     0  07:49        0.84
  YS02001779           JUNCTION     0.34     0.58     7.26     0  07:49        0.58
  YS02001882           JUNCTION     0.19     0.26     6.97     0  03:01        0.26
  YS02001884           JUNCTION     0.27     0.36     6.97     0  03:02        0.36
  YS02001759           JUNCTION     0.61     0.90     7.27     0  07:49        0.90
  YS02001887           JUNCTION     0.35     0.44     6.97     0  03:02        0.44
  YS02001890           JUNCTION     0.38     0.47     6.97     0  03:01        0.47
  YS02001898           JUNCTION     0.16     0.22     6.96     0  03:02        0.22
  YS02001901           JUNCTION     0.27     0.35     6.96     0  03:02        0.35
  YS02001904           JUNCTION     0.25     0.33     6.96     0  03:02        0.33
  YS02001907           JUNCTION     0.56     0.67     6.96     0  03:02        0.67
  YS02001910           JUNCTION     0.36     0.45     6.96     0  03:03        0.45
  YS02001915           JUNCTION     0.18     0.24     6.96     0  03:02        0.24
  YS02001918           JUNCTION     0.05     0.06     7.12     0  03:06        0.06
  YS02001619           JUNCTION     0.15     0.33     7.26     0  07:48        0.33
  YS02001629           JUNCTION     0.45     0.71     7.26     0  07:49        0.71
  YS02001641           JUNCTION     0.55     0.83     7.26     0  07:50        0.83
  YS02001644           JUNCTION     0.56     0.83     7.26     0  07:49        0.83
  YS02001652           JUNCTION     0.41     0.67     7.27     0  07:48        0.67
  YS02001655           JUNCTION     0.21     0.41     7.26     0  07:50        0.41
  YS02001920           JUNCTION     0.13     0.14     7.15     0  03:05        0.14
  YS02001923           JUNCTION     0.04     0.04     7.30     0  03:03        0.04
  YS02001926           JUNCTION     0.09     0.11     7.55     0  03:03        0.11
  YS02001929           JUNCTION     0.04     0.05     7.74     0  03:01        0.05
  YS02001658           JUNCTION     0.06     0.12     7.26     0  07:49        0.12
  YS02001661           JUNCTION     0.11     0.14     7.55     0  02:58        0.14
  YS02001664           JUNCTION     0.04     0.06     7.99     0  02:58        0.06
  YS02001622           JUNCTION     0.16     0.36     7.26     0  07:50        0.36
  YS02001633           JUNCTION     0.54     0.81     7.26     0  07:50        0.81
  YS02001649           JUNCTION     0.59     0.87     7.26     0  07:50        0.87
  YS02001757           JUNCTION     0.71     1.01     7.27     0  07:49        1.00
  YS02001895           JUNCTION     0.16     0.22     6.97     0  03:02        0.22
  YS02001625           JUNCTION     0.42     0.66     7.26     0  07:49        0.66
  YS02163301           JUNCTION     0.48     0.75     7.26     0  07:50        0.75
  YS02163601           JUNCTION     0.59     0.87     7.26     0  07:49        0.86
  YS02164001           JUNCTION     0.53     0.81     7.26     0  07:50        0.81
  YS02001647           JUNCTION     0.40     0.65     7.26     0  07:49        0.65
  YSB1154              JUNCTION     0.22     0.30     9.36     0  02:29        0.30
  YSB6556              JUNCTION     0.12     0.19     9.35     0  02:30        0.19
  YSB1174              JUNCTION     0.17     0.25     9.35     0  02:29        0.25
  YSB1171              JUNCTION     0.37     0.45     9.35     0  02:30        0.45
  YS02006553           JUNCTION     0.57     0.67     6.96     0  03:02        0.67
  YS02006561           JUNCTION     0.09     0.12     6.78     0  03:02        0.12
  YS02006556           JUNCTION     0.54     0.65     6.96     0  03:02        0.65
  YS02006558           JUNCTION     0.59     0.69     6.96     0  03:02        0.69
  YS02001783           JUNCTION     0.14     0.21     6.35     0  03:03        0.21
  YS02001784           JUNCTION     0.18     0.24     6.31     0  03:03        0.24
  YS02001786           JUNCTION     0.15     0.21     6.24     0  03:04        0.21
  YS02001788           JUNCTION     0.10     0.15     6.12     0  03:04        0.15
  YS02001790           JUNCTION     0.13     0.18     5.82     0  03:04        0.18
  YS02001791           JUNCTION     0.09     0.12     5.59     0  03:04        0.12
  YS02001793           JUNCTION     0.05     0.08     4.91     0  03:07        0.08
  WS02004139           JUNCTION     0.49     0.63     5.54     0  01:21        0.63
  WSC                  OUTFALL      0.22     0.27     0.94     0  04:30        0.27
  3                    OUTFALL      0.02     0.23     6.23     0  00:00        0.19
  4                    OUTFALL      0.00     0.00     7.00     0  00:00        0.00
  5                    OUTFALL      0.00     0.00     5.00     0  00:00        0.00
  JK-storage           STORAGE      0.25     3.00     3.80     0  00:00        2.39
  CC-storage           STORAGE      0.04     0.26     7.26     0  07:50        0.26
  XR-storage           STORAGE      5.97     7.72     5.72     0  04:00        7.72
  
  
  *******************
  Node Inflow Summary
  *******************
  
  -------------------------------------------------------------------------------------------------
                                  Maximum  Maximum                  Lateral       Total        Flow
                                  Lateral    Total  Time of Max      Inflow      Inflow     Balance
                                   Inflow   Inflow   Occurrence      Volume      Volume       Error
  Node                 Type           LPS      LPS  days hr:min    10^6 ltr    10^6 ltr     Percent
  -------------------------------------------------------------------------------------------------
  WS02001211           JUNCTION      7.35   292.67     0  01:47       0.207        5.49       0.619
  WS02001212           JUNCTION      0.00   292.67     0  01:25           0        5.45       0.289
  WS02001213           JUNCTION      0.00   292.67     0  01:25           0        5.44       0.337
  WS02003069           JUNCTION      0.32   457.56     0  04:28     0.00902        8.84       0.203
  WS02003072           JUNCTION      0.00   457.49     0  04:28           0        8.82       0.273
  WS02003073           JUNCTION      1.82   459.22     0  04:29      0.0514        8.85       0.287
  WS02003060           JUNCTION     16.53   457.24     0  04:27       0.466        8.86       0.195
  WS02003066           JUNCTION      0.00   309.52     0  03:20           0           3       0.078
  WS02003059           JUNCTION      0.00   292.67     0  01:28           0        5.43       0.611
  WS02003067           JUNCTION      0.00   309.52     0  03:20           0           3       0.192
  WS02004401           JUNCTION      0.00   313.12     0  03:10           0        3.15       0.434
  WS02004402           JUNCTION      0.00   312.09     0  03:14           0        3.13       0.431
  WS02004403           JUNCTION      0.00   311.86     0  03:14           0        3.12       0.409
  WS02004404           JUNCTION      0.16   311.83     0  03:14     0.00457        3.11       0.325
  WS02004406           JUNCTION      0.00   311.70     0  03:15           0        3.09       0.807
  WS02004409           JUNCTION      0.00   311.63     0  03:16           0        3.06       0.225
  WS02004410           JUNCTION      0.00   310.73     0  03:16           0        3.05       0.284
  WS02004411           JUNCTION      0.00   310.09     0  03:18           0        3.04       0.318
  WS02004412           JUNCTION      0.00   309.77     0  03:19           0        3.03       0.382
  WS02004413           JUNCTION      0.00   309.58     0  03:19           0        3.02       0.623
  WS02004405           JUNCTION      0.04   311.79     0  03:15     0.00107         3.1       0.497
  WS02006109           JUNCTION      1.23   321.32     0  03:08      0.0347        3.21       0.464
  WS02006110           JUNCTION      0.00   321.27     0  03:08           0         3.2       0.378
  WS02006111           JUNCTION      0.00   325.38     0  03:09           0        3.18       0.060
  WS02006112           JUNCTION      2.96   321.90     0  03:09      0.0109        3.19       0.607
  WS02006113           JUNCTION      0.00   321.07     0  03:08           0        3.18       0.129
  WS02006115           JUNCTION      0.00   319.11     0  03:09           0        3.17       0.336
  WS02006116           JUNCTION      0.00   315.70     0  03:09           0        3.16       0.350
  WS02006230           JUNCTION     10.28   274.78     0  03:08        0.29        2.71       0.275
  WS02006231           JUNCTION      0.00   265.12     0  03:07           0        2.43       0.209
  WS02006232           JUNCTION      0.00   265.56     0  03:07           0        2.44       0.390
  WS02006234           JUNCTION      0.00   266.31     0  03:07           0        2.44       0.050
  WS02006235           JUNCTION      0.00   266.84     0  03:07           0        2.46       0.253
  WS02006238           JUNCTION      0.00   161.41     0  03:10           0        0.81       0.350
  WS02006240           JUNCTION      0.00   161.40     0  03:10           0         0.8       0.312
  WS02006242           JUNCTION      0.00   161.72     0  03:09           0       0.796       0.314
  WS02006243           JUNCTION      0.00   161.02     0  03:10           0       0.789      -0.193
  WS02006245           JUNCTION      0.00   160.76     0  03:10           0        0.79       0.267
  WS02006247           JUNCTION      0.00   160.77     0  03:15           0        0.79       0.021
  WS02006248           JUNCTION      0.00   160.86     0  03:15           0        0.79      -0.075
  WS02006249           JUNCTION      0.00   161.09     0  03:14           0       0.791       0.159
  WS02006239           JUNCTION      0.00   161.59     0  03:10           0       0.804       0.314
  WS02006251           JUNCTION      0.08   162.48     0  03:14     0.00217       0.797      -0.055
  WS02006252           JUNCTION      0.00   156.02     0  03:14           0       0.734       0.058
  WS02006253           JUNCTION      0.46    12.23     0  02:29     0.00141       0.061       0.116
  WS02006256           JUNCTION      0.00   600.00     0  00:00           0        1.92       0.073
  WS02004138           JUNCTION      0.00   285.00     0  00:20           0         5.3       0.035
  WS02004407           JUNCTION      0.00   311.65     0  03:15           0        3.06       0.108
  WS02006228           JUNCTION      0.00   320.21     0  03:08           0        3.19       0.307
  WS02006229           JUNCTION      0.00   320.29     0  03:08           0        3.19       0.210
  WS02006280           JUNCTION      0.00    71.82     0  02:31           0       0.489       0.015
  WS02006284           JUNCTION      0.10    71.83     0  02:31      0.0027        0.49       0.244
  WS02006287           JUNCTION      0.00    71.75     0  02:30           0       0.488       0.142
  WSF200               JUNCTION      0.00   309.52     0  03:21           0           3       0.060
  HS02004901           JUNCTION      3.67     3.67     0  02:18      0.0131      0.0132      15.320
  HS02004881           JUNCTION      1.48    11.89     0  02:29     0.00569      0.0585       0.191
  HS02004876           JUNCTION      2.33    10.63     0  02:28      0.0108      0.0533       0.963
  HS02004870           JUNCTION      2.60     8.36     0  02:28      0.0107      0.0426       0.245
  HS02004862           JUNCTION      2.25     5.94     0  02:28      0.0162      0.0321       0.513
  HS02004856           JUNCTION      1.93     3.72     0  02:28     0.00807      0.0173       9.060
  HS02004852           JUNCTION      0.00     1.93     0  02:29           0     0.00924       0.483
  HS02004848           JUNCTION      4.18     4.18     0  02:29      0.0249      0.0249       0.161
  HS02004842           JUNCTION      0.00     4.47     0  00:03           0      0.0287      82.625
  HS02004837           JUNCTION     10.50    12.70     0  02:24       0.198       0.213       0.384
  HS02004830           JUNCTION      0.15    12.85     0  02:26     0.00423       0.204       0.607
  HS02004824           JUNCTION      4.69    17.49     0  02:30       0.033       0.235       0.229
  HS02004817           JUNCTION      0.60    18.09     0  02:30      0.0169       0.252       7.079
  HS02004807           JUNCTION      4.90    22.53     0  02:29      0.0198       0.255       1.683
  HS02004802           JUNCTION      0.00    22.51     0  02:31           0       0.251       1.644
  HS02004799           JUNCTION      3.76    41.97     0  02:27       0.016       0.222       1.009
  HS02004792           JUNCTION     17.05    38.38     0  02:27      0.0746       0.207       0.203
  HS02004788           JUNCTION      6.77    22.61     0  02:29      0.0692       0.133       0.292
  HS02004785           JUNCTION      0.15    16.22     0  02:28     0.00423      0.0663       0.717
  HS02004777           JUNCTION      0.03    16.43     0  02:24    0.000846      0.0665       8.425
  HS02004770           JUNCTION     14.30    17.26     0  02:21      0.0557      0.0672       4.835
  HS02004480           JUNCTION      0.00    49.34     0  02:29           0       0.253       0.252
  HS02004479           JUNCTION      0.00     7.48     0  02:31           0      0.0433       1.708
  HS02004478           JUNCTION      0.00    71.75     0  02:30           0       0.489       0.142
  YS02001745           JUNCTION     21.52    21.52     0  03:01       0.273       0.273       0.104
  YS02001748           JUNCTION      0.04    21.55     0  03:01     0.00127       0.274       0.736
  YS02001751           JUNCTION      0.01    42.18     0  04:51     0.00031       0.342       2.348
  YS02001754           JUNCTION      0.26   136.15     0  04:36     0.00733       0.548       3.200
  YS02001762           JUNCTION      0.00    35.27     0  03:06           0       0.315       6.402
  YS02001765           JUNCTION      0.00    49.26     0  04:16           0       0.309       7.199
  YS02001767           JUNCTION      0.54    43.85     0  04:32      0.0151       0.324       9.924
  YS02001770           JUNCTION     28.46    33.39     0  02:48       0.334       0.341       7.912
  YS02001774           JUNCTION      0.00    16.97     0  02:40           0      0.0588      57.480
  YS02001779           JUNCTION      0.01     8.57     0  04:41    0.000141      0.0304      46.587
  YS02001882           JUNCTION      0.00     1.53     0  02:12           0     0.00247     101.472
  YS02001884           JUNCTION      0.00     4.93     0  02:10           0      0.0102      62.064
  YS02001759           JUNCTION     27.97    67.54     0  04:16       0.315       0.598       3.688
  YS02001887           JUNCTION     37.57    37.57     0  02:55       0.396         0.4       1.557
  YS02001890           JUNCTION      0.00    37.40     0  02:58           0       0.385       1.795
  YS02001898           JUNCTION      0.00    37.24     0  03:01           0       0.375       0.409
  YS02001901           JUNCTION      0.00    37.32     0  03:02           0       0.375       1.219
  YS02001904           JUNCTION      0.00    37.23     0  03:03           0       0.375       1.140
  YS02001907           JUNCTION      0.00    68.00     0  03:03           0       0.809       2.592
  YS02001910           JUNCTION      0.00    31.03     0  03:01           0       0.444       2.048
  YS02001915           JUNCTION     19.54    30.89     0  03:01       0.238       0.447       0.759
  YS02001918           JUNCTION      0.00    11.49     0  03:04           0        0.21       0.307
  YS02001619           JUNCTION     18.91    18.91     0  03:01       0.233       0.233       1.538
  YS02001629           JUNCTION      0.00    21.90     0  02:54           0       0.196       7.289
  YS02001641           JUNCTION      0.00    45.41     0  03:13           0       0.392       4.870
  YS02001644           JUNCTION     20.41    62.54     0  03:03       0.261       0.629       3.685
  YS02001652           JUNCTION      0.00    39.53     0  04:31           0       0.298       5.579
  YS02001655           JUNCTION      0.15    26.43     0  02:58     0.00434       0.285       3.469
  YS02001920           JUNCTION      2.87    11.50     0  03:03      0.0809       0.211       0.700
  YS02001923           JUNCTION      0.04     8.63     0  03:03     0.00106        0.13       0.128
  YS02001926           JUNCTION      0.05     8.63     0  03:01     0.00147       0.131       0.954
  YS02001929           JUNCTION      8.58     8.58     0  03:01       0.129       0.129       0.118
  YS02001658           JUNCTION      0.00    26.28     0  02:58           0        0.28       0.595
  YS02001661           JUNCTION      0.00    26.28     0  02:58           0        0.28       0.232
  YS02001664           JUNCTION     26.28    26.28     0  02:58        0.28        0.28       0.044
  YS02001622           JUNCTION      0.00    20.02     0  03:00           0        0.23       4.963
  YS02001633           JUNCTION     20.80    42.46     0  03:12       0.271       0.439       6.533
  YS02001649           JUNCTION      0.00    96.21     0  03:02           0       0.855       3.988
  YS02001757           JUNCTION      0.00   239.11     0  04:16           0        1.77       5.328
  YS02001895           JUNCTION      0.00    37.27     0  03:01           0       0.378       0.706
  YS02001625           JUNCTION      0.00    22.18     0  03:05           0       0.219      12.774
  YS02163301           JUNCTION      0.00    23.04     0  03:01           0       0.188      11.153
  YS02163601           JUNCTION      0.11    44.94     0  03:04      0.0031       0.411       6.980
  YS02164001           JUNCTION      0.00    45.10     0  03:12           0       0.393       4.496
  YS02001647           JUNCTION      0.00    66.87     0  03:03           0       0.596       3.476
  YSB1154              JUNCTION      4.15     4.15     0  02:23      0.0193      0.0208       7.478
  YSB6556              JUNCTION      0.00     4.09     0  02:27           0      0.0219       6.019
  YSB1174              JUNCTION      4.19     4.19     0  02:17      0.0142      0.0153       9.185
  YSB1171              JUNCTION      0.00     7.57     0  02:28           0      0.0427      17.354
  YS02006553           JUNCTION      0.00    68.09     0  03:05           0       0.797       1.698
  YS02006561           JUNCTION      0.00    99.39     0  03:02           0        1.11       0.038
  YS02006556           JUNCTION      0.00    68.19     0  03:05           0       0.799       1.207
  YS02006558           JUNCTION     31.92    99.41     0  03:02       0.362        1.14       0.361
  YS02001783           JUNCTION      0.00    99.38     0  03:02           0        1.11       0.088
  YS02001784           JUNCTION      1.06   100.42     0  03:03      0.0299        1.14       0.148
  YS02001786           JUNCTION      0.06   100.46     0  03:03     0.00159        1.14       0.148
  YS02001788           JUNCTION      0.07   100.52     0  03:04       0.002        1.14       0.080
  YS02001790           JUNCTION      0.15   100.67     0  03:04     0.00437        1.15       0.104
  YS02001791           JUNCTION      0.00   100.67     0  03:04           0        1.15       0.049
  YS02001793           JUNCTION      0.00   103.20     0  03:07           0        1.15       0.033
  WS02004139           JUNCTION      0.32   285.42     0  00:20     0.00905        5.31       0.510
  WSC                  OUTFALL       0.00   459.04     0  04:30           0        8.82       0.000
  3                    OUTFALL       0.00   597.65     0  00:00           0       0.256       0.000
  4                    OUTFALL       0.00     0.00     0  00:00           0           0       0.000 ltr
  5                    OUTFALL       0.00     0.00     0  00:00           0           0       0.000 ltr
  JK-storage           STORAGE       0.00   102.84     0  03:07           0         1.3     -32.566
  CC-storage           STORAGE       0.00   156.02     0  03:14           0        1.47       1.008
  XR-storage           STORAGE     235.49   235.49     0  03:01        6.09        6.69      -0.000
  
  
  **********************
  Node Surcharge Summary
  **********************
  
  Surcharging occurs when water rises above the top of the highest conduit.
  ---------------------------------------------------------------------
                                               Max. Height   Min. Depth
                                   Hours       Above Crown    Below Rim
  Node                 Type      Surcharged         Meters       Meters
  ---------------------------------------------------------------------
  WS02006256           JUNCTION        0.01          1.050        0.000
  YS02001757           JUNCTION        0.03          0.006        1.204
  
  
  *********************
  Node Flooding Summary
  *********************
  
  Flooding refers to all water that overflows a node, whether it ponds or not.
  --------------------------------------------------------------------------
                                                             Total   Maximum
                                 Maximum   Time of Max       Flood    Ponded
                        Hours       Rate    Occurrence      Volume     Depth
  Node                 Flooded       LPS   days hr:min    10^6 ltr    Meters
  --------------------------------------------------------------------------
  WS02006256              0.01    406.11      0  00:00       0.001     0.000
  XR-storage              3.83    130.25      0  04:00       0.461     0.000
  
  
  **********************
  Storage Volume Summary
  **********************
  
  --------------------------------------------------------------------------------------------------
                         Average     Avg  Evap Exfil       Maximum     Max    Time of Max    Maximum
                          Volume    Pcnt  Pcnt  Pcnt        Volume    Pcnt     Occurrence    Outflow
  Storage Unit           1000 m3    Full  Loss  Loss       1000 m3    Full    days hr:min        LPS
  --------------------------------------------------------------------------------------------------
  JK-storage               0.012       4     0     0         0.151      52       0  00:00     600.00
  CC-storage               0.120       1     0     0         0.729       5       0  07:50     156.02
  XR-storage               0.716      77     0     0         0.926     100       0  04:00     285.00
  
  
  ***********************
  Outfall Loading Summary
  ***********************
  
  -----------------------------------------------------------
                         Flow       Avg       Max       Total
                         Freq      Flow      Flow      Volume
  Outfall Node           Pcnt       LPS       LPS    10^6 ltr
  -----------------------------------------------------------
  WSC                   99.99    326.63    459.04       8.823
  3                     21.99    131.08    597.65       0.256
  4                      0.00      0.00      0.00       0.000
  5                      0.00      0.00      0.00       0.000
  -----------------------------------------------------------
  System                30.49    457.71    597.72       9.079
  
  
  ********************
  Link Flow Summary
  ********************
  
  -----------------------------------------------------------------------------
                                 Maximum  Time of Max   Maximum    Max/    Max/
                                  |Flow|   Occurrence   |Veloc|    Full    Full
  Link                 Type          LPS  days hr:min     m/sec    Flow   Depth
  -----------------------------------------------------------------------------
  WS02003066WSF200     CONDUIT    309.52     0  03:21      2.43    0.05    0.17
  WS02006287WS02006284 CONDUIT     71.74     0  02:31      1.11    0.03    0.14
  WS02006284WS02006280 CONDUIT     71.82     0  02:31      1.36    0.03    0.12
  WS02006280WS02006229 CONDUIT     71.82     0  02:31      2.18    0.02    0.09
  WS02006229WS02006228 CONDUIT    320.21     0  03:08      0.85    1.06    0.89
  WS02006256WS02006235 CONDUIT    177.52     0  00:01      2.73    1.88    1.00
  WS02006253WS02006251 CONDUIT     12.22     0  02:30      0.31    0.04    0.50
  WS02006252WS02006251 CONDUIT    156.08     0  03:14      1.79    0.57    0.66
  WS02006251WS02006249 CONDUIT    161.09     0  03:14      0.84    0.46    0.50
  WS02006249WS02006248 CONDUIT    160.86     0  03:15      0.92    0.88    0.46
  WS02006248WS02006247 CONDUIT    160.77     0  03:15      0.89    0.35    0.48
  WS02006247WS02006245 CONDUIT    160.76     0  03:10      0.85    1.27    0.50
  WS02006245WS02006243 CONDUIT    161.02     0  03:10      0.96    0.48    0.50
  WS02006243WS02006242 CONDUIT    161.72     0  03:09      0.81    0.35    0.59
  WS02006242WS02006240 CONDUIT    161.40     0  03:10      0.67    0.64    0.66
  WS02006240WS02006239 CONDUIT    161.59     0  03:10      0.64    0.51    0.65
  WS02006239WS02006238 CONDUIT    161.41     0  03:10      0.69    0.52    0.75
  WS02006238WS02006235 CONDUIT    163.11     0  03:07      1.32    0.36    0.78
  WS02006235WS02006234 CONDUIT    266.31     0  03:07      0.98    2.81    0.72
  WS02006234WS02006232 CONDUIT    265.56     0  03:07      1.17    0.54    0.79
  WS02006232WS02006231 CONDUIT    265.12     0  03:07      0.87    0.56    0.74
  WS02006231WS02006230 CONDUIT    264.50     0  03:08      1.22    4.01    0.55
  WS02006230WS02006229 CONDUIT    274.84     0  03:08      0.86    6.12    0.97
  WS02006228WS02006109 CONDUIT    320.09     0  03:08      0.76    1.40    0.92
  WS02006116WS02004401 CONDUIT    313.12     0  03:10      0.58    0.43    0.66
  WS02006115WS02006116 CONDUIT    315.70     0  03:09      0.72    0.41    0.57
  WS02006113WS02006111 CONDUIT    325.38     0  03:09      2.06    0.39    0.35
  WS02006112WS02006115 CONDUIT    319.11     0  03:09      0.57    0.19    0.70
  WS02006111WS02006112 CONDUIT    321.03     0  03:09      0.96    0.15    0.63
  WS02006110WS02006113 CONDUIT    321.07     0  03:08      0.88    0.29    0.68
  WS02006109WS02006110 CONDUIT    321.27     0  03:08      0.69    0.62    0.87
  WS02004411WS02004412 CONDUIT    309.77     0  03:19      0.71    0.44    0.54
  WS02004401WS02004402 CONDUIT    312.09     0  03:14      0.54    0.37    0.69
  WS02004413WS02003067 CONDUIT    309.52     0  03:20      0.83    0.13    0.48
  WS02004412WS02004413 CONDUIT    309.58     0  03:19      0.59    0.21    0.64
  WS02004410WS02004411 CONDUIT    310.09     0  03:18      0.75    0.42    0.52
  WS02004409WS02004410 CONDUIT    310.73     0  03:16      0.80    0.40    0.50
  WS02004407WS02004409 CONDUIT    311.63     0  03:16      1.27    0.11    0.36
  WS02004406WS02004407 CONDUIT    311.65     0  03:15      0.75    0.14    0.52
  WS02004405WS02004406 CONDUIT    311.70     0  03:15      0.46    0.61    0.81
  WS02004404WS02004405 CONDUIT    311.75     0  03:15      0.49    3.05    0.81
  WS02004403WS02004404 CONDUIT    311.67     0  03:14      0.52    0.23    0.77
  WS02004402WS02004403 CONDUIT    311.86     0  03:14      0.52    0.45    0.72
  WS02004139WS02001211 CONDUIT    285.32     0  01:47      0.51    0.36    0.51
  WS02004138WS02004139 CONDUIT    285.10     0  00:20      1.53    0.06    0.37
  WS02003067WS02003066 CONDUIT    309.52     0  03:20      0.88    0.10    0.35
  WS02001213WS02003059 CONDUIT    292.67     0  01:28      0.59    0.48    0.61
  WS02001212WS02001213 CONDUIT    292.67     0  01:25      1.19    0.45    0.35
  WS02001211WS02001212 CONDUIT    292.67     0  01:25      0.67    0.22    0.54
  WS02003072WS02003073 CONDUIT    457.40     0  04:29      1.34    0.99    0.34
  WS02003069WS02003072 CONDUIT    457.49     0  04:28      1.29    0.22    0.35
  WS02003060WS02003069 CONDUIT    457.24     0  04:28      1.57    0.18    0.30
  WS02003059WS02003060 CONDUIT    292.67     0  01:27      0.82    0.19    0.49
  HS02004901HS02004770 CONDUIT      3.20     0  02:26      0.02    0.01    0.22
  HS02004876HS02004881 CONDUIT     10.57     0  02:30      0.28    0.11    0.05
  HS02004870HS02004876 CONDUIT      8.35     0  02:29      0.20    0.01    0.06
  HS02004842HS02004848 CONDUIT      2.32     0  02:37      0.01    0.00    0.25
  HS02004837HS02004842 CONDUIT      4.47     0  00:03      0.41    0.00    0.27
  HS02004830HS02004837 CONDUIT     12.70     0  02:26      0.34    0.01    0.05
  HS02004824HS02004830 CONDUIT     12.85     0  02:27      0.38    0.02    0.05
  HS02004817HS02004824 CONDUIT     17.49     0  02:30      0.17    0.01    0.35
  HS02004770HS02004777 CONDUIT     16.40     0  02:24      0.10    0.03    0.23
  HS02004799HS02004480 CONDUIT     41.89     0  02:29      0.32    0.05    0.19
  HS02004792HS02004799 CONDUIT     38.36     0  02:28      0.38    0.02    0.14
  HS02004788HS02004792 CONDUIT     22.59     0  02:30      0.55    0.01    0.06
  HS02004785HS02004788 CONDUIT     16.14     0  02:30      0.30    0.12    0.08
  HS02004777HS02004785 CONDUIT     16.07     0  02:28      0.13    0.02    0.18
  HS02004480HS02004478 CONDUIT     49.28     0  02:29      0.59    0.21    0.12
  HS02004479HS02004480 CONDUIT      7.55     0  02:33      0.15    0.01    0.19
  HS02004862HS02004870 CONDUIT      5.92     0  02:30      0.29    0.01    0.03
  HS02004848HS02004852 CONDUIT      1.93     0  02:29      0.18    0.00    0.02
  HS02004856HS02004862 CONDUIT      3.71     0  02:29      0.20    0.00    0.03
  HS02004852HS02004856 CONDUIT      1.91     0  02:31      0.04    0.00    0.07
  HS02004802HS02004478 CONDUIT     22.56     0  02:33      0.18    0.02    0.18
  HS02004478WS02006287 CONDUIT     71.75     0  02:30      0.81    0.02    0.10
  HS02004817HS02004807 CONDUIT     18.14     0  02:34      0.06    0.01    0.43
  HS02004807HS02004802 CONDUIT     22.51     0  02:31      0.19    0.04    0.22
  YS02001759YS02001757 CONDUIT     65.16     0  03:06      0.12    0.05    0.95
  YS02001762YS02001759 CONDUIT     50.43     0  04:16      0.17    0.06    0.88
  YS02001765YS02001762 CONDUIT     35.27     0  03:06      0.22    0.03    0.84
  YS02001770YS02001767 CONDUIT     35.43     0  03:05      0.28    0.14    0.77
  YS02001774YS02001770 CONDUIT     16.97     0  02:40      0.13    0.01    0.79
  YS02001779YS02001774 CONDUIT      8.57     0  04:41      0.04    0.00    0.71
  YS02001649YS02001757 CONDUIT     94.87     0  03:14      0.15    0.06    0.94
  YS02001767YS02001765 CONDUIT     49.26     0  04:16      0.26    0.06    0.79
  YS02006561YS02001783 CONDUIT     99.38     0  03:02      1.32    0.05    0.21
  YS02001783YS02001784 CONDUIT     99.36     0  03:03      0.85    0.14    0.28
  YS02001784YS02001785 CONDUIT    100.40     0  03:03      0.86    0.23    0.28
  YS02001788YS02001790 CONDUIT    100.52     0  03:04      1.37    0.07    0.20
  YS02001790YS02001791 CONDUIT    100.67     0  03:04      1.56    0.11    0.19
  YS02001791YS02001793 CONDUIT    103.20     0  03:07      3.09    0.04    0.13
  YS02001910YS02001907 CONDUIT     30.98     0  03:05      0.49    0.02    0.56
  YS02001786YS02001788 CONDUIT    100.45     0  03:04      1.21    0.19    0.22
  YS02001915YS02001910 CONDUIT     31.03     0  03:01      0.44    0.02    0.35
  YS02001918YS02001915 CONDUIT     11.48     0  03:06      0.44    0.01    0.15
  YS02001923YS02001920 CONDUIT      8.63     0  03:03      0.23    0.00    0.09
  YS02001926YS02001923 CONDUIT      8.59     0  03:03      0.30    0.01    0.08
  YS02001929YS02001926 CONDUIT      8.57     0  03:01      0.31    0.00    0.08
  YS02001920YS02001918 CONDUIT     11.49     0  03:04      0.28    0.01    0.10
  YS02001629YS02163301 CONDUIT     23.04     0  03:01      0.07    0.03    0.73
  YS02001619YS02001622 CONDUIT     20.02     0  03:00      0.47    0.03    0.35
  YS02001622YS02001625 CONDUIT     22.18     0  03:05      0.15    0.01    0.51
  YS02001625YS02001629 CONDUIT     21.90     0  02:54      0.13    0.01    0.50
  YS02163301YS02001633 CONDUIT     22.73     0  03:12      0.07    0.02    0.78
  YS02163601YS02164001 CONDUIT     45.10     0  03:12      0.08    0.04    0.84
  YS02164001YS02001641 CONDUIT     45.41     0  03:13      0.09    0.06    0.82
  YS02001641YS02001644 CONDUIT     42.39     0  03:03      0.10    0.14    0.83
  YS02001647YS02001649 CONDUIT     64.52     0  03:02      0.14    0.03    0.76
  YS02006553YS02006556 CONDUIT     68.19     0  03:05      0.18    0.06    0.64
  YS02006556YS02006558 CONDUIT     68.22     0  03:05      0.12    0.05    0.67
  YSB6556YSB1171       CONDUIT      4.09     0  02:31      0.03    0.00    0.45
  YS02001907YS02006553 CONDUIT     68.09     0  03:05      0.10    0.08    0.73
  YS02006558YS02006561 CONDUIT     99.39     0  03:02      1.68    0.22    0.26
  YS02001633YS02163601 CONDUIT     44.83     0  03:04      0.08    0.05    0.83
  YS02001644YS02001647 CONDUIT     66.87     0  03:03      0.15    0.04    0.74
  YS02001745YS02001748 CONDUIT     21.51     0  03:01      1.00    0.01    0.07
  YS02001748YS02001751 CONDUIT     21.55     0  03:01      0.82    0.01    0.28
  YS02001751YS02001754 CONDUIT     55.10     0  04:44      0.77    0.03    0.50
  YS02001754YS02001757 CONDUIT    108.40     0  04:35      0.33    0.04    0.83
  YS02001882YS02001884 CONDUIT      1.53     0  02:12      0.06    0.00    0.28
  YS02001884YS02001887 CONDUIT      4.93     0  02:10      0.05    0.01    0.37
  YS02001890YS02001895 CONDUIT     37.27     0  03:01      0.16    0.02    0.34
  YS02001895YS02001898 CONDUIT     37.24     0  03:01      0.37    0.06    0.21
  YS02001898YS02001901 CONDUIT     37.32     0  03:02      0.20    0.02    0.29
  YS02001901YS02001904 CONDUIT     37.23     0  03:03      0.19    0.06    0.34
  YS02001904YS02001907 CONDUIT     37.36     0  03:03      0.10    0.01    0.50
  YS02001887YS02001890 CONDUIT     37.40     0  02:58      0.12    0.06    0.43
  YS02001652YS02001649 CONDUIT     39.39     0  04:16      0.24    0.02    0.77
  YS02001655YS02001652 CONDUIT     32.70     0  02:57      0.82    0.02    0.53
  YS02001658YS02001655 CONDUIT     26.28     0  02:58      0.93    0.01    0.27
  YS02001661YS02001658 CONDUIT     26.28     0  02:58      1.02    0.01    0.08
  YS02001664YS02001661 CONDUIT     26.28     0  02:58      0.62    0.01    0.10
  YSB1154YSB6556       CONDUIT      4.09     0  02:27      0.19    0.01    0.34
  YSB1174YSB1171       CONDUIT      3.94     0  02:18      0.02    0.01    0.46
  YSB1171HS02004479    CONDUIT      7.48     0  02:31      0.54    0.00    0.34
  HS02004881HS02006253 CONDUIT     11.89     0  02:30      1.04    0.00    0.03
  YS02001793JiankangQianchi CONDUIT    102.84     0  03:07      9.46    0.01    0.53
  YS02001757CaochengTiaoxuchi CONDUIT    156.02     0  03:14      0.51    0.07    0.63
  WSF200WS02003060     CONDUIT    309.51     0  03:21      1.57    0.07    0.23
  1                    CONDUIT    459.04     0  04:30      2.68    0.16    0.27
  2                    CONDUIT      0.00     0  00:00      0.00    0.00    0.00
  3                    CONDUIT    597.65     0  00:00     10.05    0.95    0.86
  4                    CONDUIT      0.00     0  00:00      0.00    0.00    0.00
  CC-Pump-1            PUMP       156.02     0  03:14              0.78
  CC-Pump-2            PUMP         0.00     0  00:00              0.00
  JK-Pump-1            PUMP       300.00     0  00:00              1.00
  JK-Pump-2            PUMP       300.00     0  00:00              1.00
  XR-Pump-1            PUMP         0.00     0  00:00              0.00
  XR-Pump-2            PUMP        95.00     0  00:20              1.00
  XR-Pump-3            PUMP        95.00     0  00:20              1.00
  XR-Pump-4            PUMP        95.00     0  00:20              1.00
  
  
  ***************************
  Flow Classification Summary
  ***************************
  
  -------------------------------------------------------------------------------------
                      Adjusted    ---------- Fraction of Time in Flow Class ---------- 
                       /Actual         Up    Down  Sub   Sup   Up    Down  Norm  Inlet 
  Conduit               Length    Dry  Dry   Dry   Crit  Crit  Crit  Crit  Ltd   Ctrl  
  -------------------------------------------------------------------------------------
  WS02003066WSF200        1.00   0.16  0.00  0.00  0.00  0.84  0.00  0.00  0.71  0.00
  WS02006287WS02006284    1.00   0.08  0.04  0.00  0.64  0.25  0.00  0.00  0.81  0.00
  WS02006284WS02006280    1.00   0.09  0.00  0.00  0.00  0.00  0.00  0.91  0.00  0.00
  WS02006280WS02006229    1.00   0.09  0.00  0.00  0.00  0.00  0.00  0.91  0.00  0.00
  WS02006229WS02006228    1.00   0.00  0.00  0.00  0.96  0.00  0.00  0.04  0.00  0.00
  WS02006256WS02006235    1.00   0.00  0.00  0.00  0.99  0.01  0.00  0.00  0.00  0.00
  WS02006253WS02006251    1.00   0.06  0.03  0.00  0.89  0.00  0.03  0.00  0.00  0.00
  WS02006252WS02006251    1.00   0.21  0.00  0.00  0.00  0.00  0.79  0.00  0.00  0.00
  WS02006251WS02006249    1.00   0.00  0.00  0.00  1.00  0.00  0.00  0.00  0.77  0.00
  WS02006249WS02006248    1.00   0.00  0.04  0.00  0.49  0.00  0.46  0.00  0.00  0.00
  WS02006248WS02006247    1.00   0.04  0.00  0.00  0.93  0.00  0.00  0.02  0.68  0.00
  WS02006247WS02006245    1.00   0.04  0.00  0.00  0.91  0.00  0.00  0.04  0.00  0.00
  WS02006245WS02006243    1.00   0.04  0.00  0.00  0.83  0.00  0.00  0.13  0.22  0.00
  WS02006243WS02006242    1.00   0.02  0.01  0.00  0.97  0.00  0.00  0.00  0.46  0.00
  WS02006242WS02006240    1.00   0.01  0.00  0.00  0.99  0.00  0.00  0.00  0.00  0.00
  WS02006240WS02006239    1.00   0.01  0.00  0.00  0.82  0.00  0.00  0.17  0.01  0.00
  WS02006239WS02006238    1.00   0.00  0.00  0.00  1.00  0.00  0.00  0.00  0.05  0.00
  WS02006238WS02006235    1.00   0.00  0.00  0.00  1.00  0.00  0.00  0.00  0.00  0.00
  WS02006235WS02006234    1.00   0.00  0.00  0.00  0.84  0.00  0.16  0.00  0.00  0.00
  WS02006234WS02006232    1.00   0.00  0.00  0.00  0.99  0.01  0.00  0.00  0.04  0.00
  WS02006232WS02006231    1.00   0.00  0.01  0.00  0.98  0.00  0.01  0.00  0.00  0.00
  WS02006231WS02006230    1.00   0.01  0.00  0.00  0.00  0.00  0.99  0.00  0.00  0.00
  WS02006230WS02006229    1.00   0.00  0.00  0.00  0.96  0.00  0.00  0.04  0.01  0.00
  WS02006228WS02006109    1.00   0.00  0.00  0.00  0.99  0.00  0.00  0.01  0.00  0.00
  WS02006116WS02004401    1.00   0.05  0.00  0.00  0.95  0.00  0.00  0.00  0.00  0.00
  WS02006115WS02006116    1.00   0.05  0.00  0.00  0.92  0.00  0.00  0.03  0.01  0.00
  WS02006113WS02006111    1.00   0.04  0.00  0.00  0.00  0.96  0.00  0.00  0.14  0.00
  WS02006112WS02006115    1.00   0.04  0.01  0.00  0.95  0.00  0.00  0.00  0.00  0.00
  WS02006111WS02006112    1.00   0.04  0.00  0.00  0.95  0.00  0.00  0.00  0.98  0.00
  WS02006110WS02006113    1.00   0.04  0.01  0.00  0.96  0.00  0.00  0.00  0.00  0.00
  WS02006109WS02006110    1.00   0.00  0.04  0.00  0.96  0.00  0.01  0.00  0.00  0.00
  WS02004411WS02004412    1.00   0.12  0.00  0.00  0.88  0.00  0.00  0.00  0.00  0.00
  WS02004401WS02004402    1.00   0.05  0.00  0.00  0.95  0.00  0.00  0.00  0.00  0.00
  WS02004413WS02003067    1.00   0.12  0.03  0.00  0.00  0.00  0.85  0.00  0.00  0.00
  WS02004412WS02004413    1.00   0.12  0.00  0.00  0.88  0.00  0.00  0.00  0.03  0.00
  WS02004410WS02004411    1.00   0.11  0.00  0.00  0.89  0.00  0.00  0.00  0.01  0.00
  WS02004409WS02004410    1.00   0.11  0.00  0.00  0.89  0.00  0.00  0.00  0.01  0.00
  WS02004407WS02004409    1.00   0.11  0.00  0.00  0.88  0.00  0.00  0.00  0.80  0.00
  WS02004406WS02004407    1.00   0.00  0.11  0.00  0.89  0.00  0.00  0.00  0.00  0.00
  WS02004405WS02004406    1.00   0.00  0.00  0.00  1.00  0.00  0.00  0.00  0.02  0.00
  WS02004404WS02004405    1.00   0.00  0.00  0.00  1.00  0.00  0.00  0.00  0.00  0.00
  WS02004403WS02004404    1.00   0.00  0.05  0.00  0.95  0.00  0.00  0.00  0.02  0.00
  WS02004402WS02004403    1.00   0.05  0.00  0.00  0.95  0.00  0.00  0.00  0.00  0.00
  WS02004139WS02001211    1.00   0.00  0.02  0.00  0.98  0.00  0.00  0.00  0.00  0.00
  WS02004138WS02004139    1.00   0.04  0.00  0.00  0.95  0.01  0.00  0.00  0.98  0.00
  WS02003067WS02003066    1.00   0.15  0.01  0.00  0.84  0.00  0.00  0.00  0.00  0.00
  WS02001213WS02003059    1.00   0.01  0.02  0.00  0.97  0.00  0.00  0.00  0.00  0.00
  WS02001212WS02001213    1.00   0.05  0.00  0.00  0.32  0.00  0.63  0.00  0.00  0.00
  WS02001211WS02001212    1.00   0.00  0.05  0.00  0.95  0.00  0.00  0.00  0.00  0.00
  WS02003072WS02003073    1.00   0.00  0.00  0.00  0.00  0.00  0.00  1.00  0.00  0.00
  WS02003069WS02003072    1.00   0.00  0.00  0.00  0.98  0.02  0.00  0.00  0.82  0.00
  WS02003060WS02003069    1.00   0.00  0.00  0.00  0.97  0.03  0.00  0.00  0.10  0.00
  WS02003059WS02003060    1.00   0.00  0.00  0.00  0.99  0.01  0.00  0.00  0.03  0.00
  HS02004901HS02004770    1.00   0.09  0.00  0.00  0.91  0.00  0.00  0.00  0.04  0.00
  HS02004876HS02004881    1.00   0.04  0.00  0.00  0.96  0.00  0.00  0.00  0.00  0.00
  HS02004870HS02004876    1.00   0.02  0.00  0.00  0.98  0.00  0.00  0.00  0.95  0.00
  HS02004842HS02004848    1.00   0.00  0.09  0.00  0.91  0.00  0.00  0.00  0.73  0.00
  HS02004837HS02004842    1.00   0.00  0.00  0.00  0.98  0.02  0.00  0.00  0.11  0.00
  HS02004830HS02004837    1.00   0.00  0.00  0.00  0.99  0.01  0.00  0.00  0.99  0.00
  HS02004824HS02004830    1.00   0.00  0.00  0.00  1.00  0.00  0.00  0.00  0.00  0.00
  HS02004817HS02004824    1.00   0.00  0.00  0.00  1.00  0.00  0.00  0.00  1.00  0.00
  HS02004770HS02004777    1.00   0.00  0.09  0.00  0.91  0.00  0.00  0.00  0.08  0.00
  HS02004799HS02004480    1.00   0.01  0.04  0.00  0.88  0.00  0.07  0.00  0.00  0.00
  HS02004792HS02004799    1.00   0.00  0.00  0.00  0.97  0.03  0.00  0.00  0.98  0.00
  HS02004788HS02004792    1.00   0.00  0.00  0.00  0.96  0.04  0.00  0.00  0.98  0.00
  HS02004785HS02004788    1.00   0.00  0.00  0.00  1.00  0.00  0.00  0.00  0.00  0.00
  HS02004777HS02004785    1.00   0.00  0.00  0.00  1.00  0.00  0.00  0.00  0.22  0.00
  HS02004480HS02004478    1.00   0.10  0.00  0.00  0.65  0.00  0.00  0.25  0.00  0.00
  HS02004479HS02004480    1.00   0.05  0.00  0.00  0.95  0.00  0.00  0.00  0.17  0.00
  HS02004862HS02004870    1.00   0.00  0.00  0.00  1.00  0.00  0.00  0.00  0.05  0.00
  HS02004848HS02004852    1.00   0.09  0.00  0.00  0.91  0.00  0.00  0.00  0.68  0.00
  HS02004856HS02004862    1.00   0.00  0.15  0.00  0.85  0.00  0.00  0.00  0.72  0.00
  HS02004852HS02004856    1.00   0.09  0.02  0.00  0.89  0.00  0.00  0.00  0.81  0.00
  HS02004802HS02004478    1.00   0.09  0.02  0.00  0.89  0.00  0.00  0.00  0.00  0.00
  HS02004478WS02006287    1.00   0.11  0.00  0.00  0.89  0.00  0.00  0.00  0.81  0.00
  HS02004817HS02004807    1.00   0.00  0.09  0.00  0.91  0.00  0.00  0.00  0.00  0.00
  HS02004807HS02004802    1.00   0.09  0.00  0.00  0.90  0.00  0.00  0.00  0.01  0.00
  YS02001759YS02001757    1.00   0.00  0.00  0.00  1.00  0.00  0.00  0.00  0.17  0.00
  YS02001762YS02001759    1.00   0.00  0.00  0.00  1.00  0.00  0.00  0.00  0.06  0.00
  YS02001765YS02001762    1.00   0.00  0.00  0.00  1.00  0.00  0.00  0.00  0.24  0.00
  YS02001770YS02001767    1.00   0.00  0.00  0.00  1.00  0.00  0.00  0.00  0.00  0.00
  YS02001774YS02001770    1.00   0.01  0.11  0.00  0.88  0.00  0.00  0.00  0.06  0.00
  YS02001779YS02001774    1.00   0.00  0.00  0.00  1.00  0.00  0.00  0.00  0.29  0.00
  YS02001649YS02001757    1.00   0.00  0.00  0.00  1.00  0.00  0.00  0.00  0.20  0.00
  YS02001767YS02001765    1.00   0.00  0.00  0.00  1.00  0.00  0.00  0.00  0.01  0.00
  YS02006561YS02001783    1.00   0.16  0.00  0.00  0.00  0.84  0.00  0.00  0.71  0.00
  YS02001783YS02001784    1.00   0.00  0.16  0.00  0.84  0.00  0.00  0.00  0.30  0.00
  YS02001784YS02001785    1.00   0.00  0.00  0.00  1.00  0.00  0.00  0.00  0.27  0.00
  YS02001788YS02001790    1.00   0.00  0.00  0.00  0.16  0.84  0.00  0.00  0.99  0.00
  YS02001790YS02001791    1.00   0.00  0.00  0.00  0.04  0.96  0.00  0.00  0.16  0.00
  YS02001791YS02001793    1.00   0.00  0.00  0.00  0.00  1.00  0.00  0.00  0.00  0.00
  YS02001910YS02001907    1.00   0.00  0.00  0.00  0.95  0.00  0.00  0.04  0.13  0.00
  YS02001786YS02001788    1.00   0.00  0.00  0.00  0.29  0.71  0.00  0.00  0.00  0.00
  YS02001915YS02001910    1.00   0.00  0.00  0.00  0.99  0.01  0.00  0.00  0.26  0.00
  YS02001918YS02001915    1.00   0.00  0.02  0.00  0.97  0.01  0.00  0.00  0.79  0.00
  YS02001923YS02001920    1.00   0.00  0.00  0.00  1.00  0.00  0.00  0.00  1.00  0.00
  YS02001926YS02001923    1.00   0.00  0.07  0.00  0.00  0.00  0.93  0.00  0.00  0.00
  YS02001929YS02001926    1.00   0.00  0.09  0.00  0.91  0.00  0.00  0.00  0.86  0.00
  YS02001920YS02001918    1.00   0.00  0.02  0.00  0.98  0.00  0.00  0.00  0.00  0.00
  YS02001629YS02163301    1.00   0.14  0.01  0.00  0.86  0.00  0.00  0.00  0.00  0.00
  YS02001619YS02001622    1.00   0.09  0.00  0.00  0.91  0.00  0.00  0.00  0.00  0.00
  YS02001622YS02001625    1.00   0.09  0.00  0.00  0.91  0.00  0.00  0.00  0.15  0.00
  YS02001625YS02001629    1.00   0.09  0.07  0.00  0.80  0.00  0.04  0.00  0.00  0.00
  YS02163301YS02001633    1.00   0.00  0.14  0.00  0.86  0.00  0.00  0.00  0.00  0.00
  YS02163601YS02164001    1.00   0.00  0.07  0.00  0.93  0.00  0.00  0.00  0.00  0.00
  YS02164001YS02001641    1.00   0.03  0.04  0.00  0.93  0.00  0.00  0.00  0.07  0.00
  YS02001641YS02001644    1.00   0.00  0.02  0.00  0.98  0.00  0.00  0.00  0.00  0.00
  YS02001647YS02001649    1.00   0.00  0.15  0.00  0.84  0.00  0.00  0.00  0.01  0.00
  YS02006553YS02006556    1.00   0.04  0.00  0.00  0.96  0.00  0.00  0.00  0.03  0.00
  YS02006556YS02006558    1.00   0.00  0.01  0.00  0.99  0.00  0.00  0.00  0.00  0.00
  YSB6556YSB1171          1.00   0.05  0.04  0.00  0.91  0.00  0.00  0.00  0.00  0.00
  YS02001907YS02006553    1.00   0.01  0.03  0.00  0.96  0.00  0.00  0.00  0.00  0.00
  YS02006558YS02006561    1.00   0.15  0.00  0.00  0.00  0.84  0.00  0.00  0.70  0.00
  YS02001633YS02163601    1.00   0.00  0.03  0.00  0.97  0.00  0.00  0.00  0.21  0.00
  YS02001644YS02001647    1.00   0.00  0.15  0.00  0.85  0.00  0.00  0.00  0.00  0.00
  YS02001745YS02001748    1.00   0.00  0.00  0.00  0.07  0.02  0.00  0.91  0.16  0.00
  YS02001748YS02001751    1.00   0.00  0.00  0.00  0.94  0.06  0.00  0.00  0.60  0.00
  YS02001751YS02001754    1.00   0.00  0.00  0.00  0.83  0.00  0.00  0.17  0.04  0.00
  YS02001754YS02001757    1.00   0.00  0.00  0.00  0.98  0.02  0.00  0.00  0.29  0.00
  YS02001882YS02001884    1.00   0.13  0.01  0.00  0.86  0.00  0.00  0.00  0.00  0.00
  YS02001884YS02001887    1.00   0.06  0.02  0.00  0.92  0.00  0.00  0.00  0.00  0.00
  YS02001890YS02001895    1.00   0.01  0.13  0.00  0.86  0.00  0.00  0.00  0.00  0.00
  YS02001895YS02001898    1.00   0.14  0.00  0.00  0.84  0.00  0.02  0.00  0.00  0.00
  YS02001898YS02001901    1.00   0.13  0.01  0.00  0.85  0.00  0.00  0.00  0.02  0.00
  YS02001901YS02001904    1.00   0.13  0.00  0.00  0.87  0.00  0.00  0.00  0.00  0.00
  YS02001904YS02001907    1.00   0.01  0.12  0.00  0.87  0.00  0.00  0.00  0.00  0.00
  YS02001887YS02001890    1.00   0.00  0.01  0.00  0.95  0.00  0.04  0.00  0.00  0.00
  YS02001652YS02001649    1.00   0.00  0.00  0.00  1.00  0.00  0.00  0.00  0.28  0.00
  YS02001655YS02001652    1.00   0.00  0.00  0.00  0.83  0.00  0.00  0.17  0.04  0.00
  YS02001658YS02001655    1.00   0.00  0.12  0.00  0.81  0.07  0.00  0.00  0.60  0.00
  YS02001661YS02001658    1.00   0.12  0.00  0.00  0.10  0.78  0.00  0.00  0.73  0.00
  YS02001664YS02001661    1.00   0.09  0.00  0.00  0.91  0.00  0.00  0.00  0.86  0.00
  YSB1154YSB6556          1.00   0.09  0.00  0.00  0.91  0.00  0.00  0.00  0.02  0.00
  YSB1174YSB1171          1.00   0.06  0.02  0.00  0.93  0.00  0.00  0.00  0.00  0.00
  YSB1171HS02004479       1.00   0.05  0.00  0.00  0.94  0.00  0.00  0.01  0.14  0.00
  HS02004881HS02006253    1.00   0.06  0.00  0.00  0.14  0.12  0.00  0.68  0.10  0.00
  YS02001793JiankangQianchi    1.00   0.00  0.01  0.00  0.17  0.83  0.00  0.00  0.14  0.00
  YS02001757CaochengTiaoxuchi    1.00   0.00  0.21  0.00  0.79  0.00  0.00  0.00  0.00  0.00
  WSF200WS02003060        1.00   0.00  0.16  0.00  0.45  0.39  0.00  0.00  0.54  0.00
  1                       1.00   0.00  0.00  0.00  0.00  1.00  0.00  0.00  0.15  0.00
  2                       1.00   1.00  0.00  0.00  0.00  0.00  0.00  0.00  0.00  0.00
  3                       1.00   0.78  0.00  0.00  0.00  0.22  0.00  0.00  0.00  0.00
  4                       1.00   1.00  0.00  0.00  0.00  0.00  0.00  0.00  0.00  0.00
  
  
  *************************
  Conduit Surcharge Summary
  *************************
  
  ----------------------------------------------------------------------------
                                                           Hours        Hours 
                         --------- Hours Full --------   Above Full   Capacity
  Conduit                Both Ends  Upstream  Dnstream   Normal Flow   Limited
  ----------------------------------------------------------------------------
  WS02006229WS02006228        0.01      0.01      0.01      0.30         0.01
  WS02006256WS02006235        3.19      3.19      7.48      1.93         0.01
  WS02006247WS02006245        0.01      0.01      0.01      1.15         0.01
  WS02006235WS02006234        0.01      0.01      0.01      2.82         0.01
  WS02006231WS02006230        0.01      0.01      0.01      4.50         0.01
  WS02006230WS02006229        0.01      0.01      0.01      5.03         0.01
  WS02006228WS02006109        0.01      0.01      0.01      1.34         0.01
  WS02006111WS02006112        0.01      0.01      0.43      0.01         0.01
  WS02004404WS02004405        0.01      0.01      0.01      3.61         0.01
  YS02001759YS02001757        0.01      0.01      0.03      0.01         0.01
  YS02001649YS02001757        0.01      0.01      0.03      0.01         0.01
  YS02001754YS02001757        0.01      0.01      0.03      0.01         0.01
  YS02001793JiankangQianchi        0.01      0.01      0.43      0.01         0.01
  YS02001757CaochengTiaoxuchi        0.01      0.01      0.03      0.01         0.01
  3                           0.01      0.01      0.01      0.01         0.01
  
  
  ***************
  Pumping Summary
  ***************
  
  ---------------------------------------------------------------------------------------------------------
                                                  Min       Avg       Max     Total     Power    % Time Off
                        Percent   Number of      Flow      Flow      Flow    Volume     Usage    Pump Curve
  Pump                 Utilized   Start-Ups       LPS       LPS       LPS  10^6 ltr     Kw-hr    Low   High
  ---------------------------------------------------------------------------------------------------------
  CC-Pump-1               20.29           1      0.00    131.85    156.02     0.729      3.04    0.0  100.0
  CC-Pump-2                0.00           0      0.00      0.00      0.00     0.000      0.00    0.0    0.0
  JK-Pump-1               89.38           2      0.00     85.81    300.00     1.234     22.53    0.0    0.0
  JK-Pump-2               72.35           2      0.00     57.37    300.00     0.687     12.67    0.0    0.0
  XR-Pump-1                0.00           0      0.00      0.00      0.00     0.000      0.00    0.0    0.0
  XR-Pump-2               53.19           1      0.00     91.44     95.00     1.368     18.24    0.0    0.0
  XR-Pump-3               70.20           2      0.00     87.71     95.00     1.795     13.37    0.0    0.0
  XR-Pump-4               82.97           2      0.00     85.74     95.00     2.137     19.57    0.0    0.0
  

  Analysis begun on:  Tue Dec 21 17:10:08 2021
  Analysis ended on:  Tue Dec 21 17:10:09 2021
  Total elapsed time: 00:00:01