
  EPA STORM WATER MANAGEMENT MODEL - VERSION 5.1 (Build 5.3.0.dev0)
  --------------------------------------------------------------

  WARNING 04: minimum elevation drop used for Conduit WS02004404WS02004405
  WARNING 03: negative offset ignored for Link YS02001904YS02001907
  
  *********************************************************
  NOTE: The summary statistics displayed in this report are
  based on results found at every computational time step,  
  not just on results from each reporting time step.
  *********************************************************
  
  ****************
  Analysis Options
  ****************
  Flow Units ............... LPS
  Process Models:
    Rainfall/Runoff ........ YES
    RDII ................... NO
    Snowmelt ............... NO
    Groundwater ............ NO
    Flow Routing ........... YES
    Ponding Allowed ........ NO
    Water Quality .......... NO
  Infiltration Method ...... HORTON
  Flow Routing Method ...... DYNWAVE
  Surcharge Method ......... EXTRAN
  Starting Date ............ 08/28/2015 08:00:00
  Ending Date .............. 08/28/2015 15:50:00
  Antecedent Dry Days ...... 8.0
  Report Time Step ......... 00:01:00
  Wet Time Step ............ 00:01:00
  Dry Time Step ............ 00:01:00
  Routing Time Step ........ 5.00 sec
  Variable Time Step ....... YES
  Maximum Trials ........... 8
  Number of Threads ........ 4
  Head Tolerance ........... 0.001500 m
  
  
  **************************        Volume         Depth
  Runoff Quantity Continuity     hectare-m            mm
  **************************     ---------       -------
  Total Precipitation ......         2.691         5.892
  Evaporation Loss .........         0.000         0.000
  Infiltration Loss ........         0.676         1.480
  Surface Runoff ...........         1.133         2.480
  Final Storage ............         0.883         1.933
  Continuity Error (%) .....        -0.018
  
  
  **************************        Volume        Volume
  Flow Routing Continuity        hectare-m      10^6 ltr
  **************************     ---------     ---------
  Dry Weather Inflow .......         0.616         6.165
  Wet Weather Inflow .......         1.132        11.322
  Groundwater Inflow .......         0.000         0.000
  RDII Inflow ..............         0.000         0.000
  External Inflow ..........         0.102         1.024
  External Outflow .........         1.398        13.981
  Flooding Loss ............         0.056         0.560
  Evaporation Loss .........         0.000         0.000
  Exfiltration Loss ........         0.000         0.000
  Initial Stored Volume ....         0.076         0.761
  Final Stored Volume ......         0.584         5.838
  Continuity Error (%) .....        -5.752
  
  
  *************************
  Highest Continuity Errors
  *************************
  Node JK-storage (-32.94%)
  Node HS02004842 (28.52%)
  Node YS02001884 (22.90%)
  Node YS02001774 (18.08%)
  Node YSB1171 (6.99%)
  
  
  ***************************
  Time-Step Critical Elements
  ***************************
  Link WS02006252WS02006251 (47.78%)
  Link 3 (41.78%)
  Link YS02001793JiankangQianchi (2.98%)
  Link WS02006280WS02006229 (2.33%)
  
  
  ********************************
  Highest Flow Instability Indexes
  ********************************
  Link WS02006113WS02006111 (54)
  Link WS02006111WS02006112 (21)
  Link YS02006558YS02006561 (13)
  Link YS02001629YS02163301 (11)
  Link YS02164001YS02001641 (10)
  
  
  *************************
  Routing Time Step Summary
  *************************
  Minimum Time Step           :     0.50 sec
  Average Time Step           :     1.13 sec
  Maximum Time Step           :     5.00 sec
  Percent in Steady State     :    -0.00
  Average Iterations per Step :     2.93
  Percent Not Converging      :    10.16
  
  
  ***************************
  Subcatchment Runoff Summary
  ***************************
  
  ------------------------------------------------------------------------------------------------------------------------------
                            Total      Total      Total      Total     Imperv       Perv      Total       Total     Peak  Runoff
                           Precip      Runon       Evap      Infil     Runoff     Runoff     Runoff      Runoff   Runoff   Coeff
  Subcatchment                 mm         mm         mm         mm         mm         mm         mm    10^6 ltr      LPS
  ------------------------------------------------------------------------------------------------------------------------------
  sub0                       5.89       0.00       0.00       0.41       4.21       0.00       4.21        0.00     1.47   0.715
  sub1                       5.89       0.00       0.00       0.65       3.99       0.00       3.99        0.03     7.65   0.677
  sub2                       5.89       0.00       0.00       2.18       2.81       0.00       2.81        0.03     6.74   0.476
  sub3                       5.89       0.00       0.00       2.18       2.77       0.00       2.77        0.06    13.82   0.470
  sub4                       5.89       0.00       0.00       0.65       3.85       0.00       3.85        0.08    15.45   0.654
  sub5                       5.89       0.00       0.00       0.41       4.17       0.00       4.17        0.05    13.60   0.707
  sub7                       5.89       0.00       0.00       0.53       4.11       0.00       4.11        0.01     4.82   0.697
  sub8                       5.89       0.00       0.00       0.53       4.10       0.00       4.10        0.03     8.49   0.696
  sub9                       5.89       0.00       0.00       0.53       4.10       0.00       4.10        0.02     6.29   0.695
  sub10                      5.89       0.00       0.00       0.47       4.13       0.00       4.13        0.05    13.58   0.701
  sub11                      5.89       0.00       0.00       0.47       4.15       0.00       4.15        0.05    15.97   0.704
  sub12                      5.89       0.00       0.00       0.77       3.94       0.00       3.94        0.03    13.59   0.668
  sub14                      5.89       0.00       0.00       0.53       4.09       0.00       4.09        0.04    12.29   0.695
  sub15                      5.89       0.00       0.00       1.77       3.15       0.00       3.15        0.05    16.66   0.534
  sub16                      5.89       0.00       0.00       1.94       3.03       0.00       3.03        0.03    11.93   0.514
  sub17                      5.89       0.00       0.00       1.89       3.07       0.00       3.07        0.03     9.64   0.522
  sub22                      5.89       0.00       0.00       2.53       2.57       0.00       2.57        0.16    54.70   0.436
  sub23                      5.89       0.00       0.00       2.18       2.84       0.00       2.84        0.14    46.61   0.482
  sub60                      5.89       0.00       0.00       0.71       2.76       0.00       2.76        0.84    76.77   0.469
  sub61                      5.89       0.00       0.00       1.00       2.95       0.00       2.95        0.91    96.90   0.501
  sub62                      5.89       0.00       0.00       0.47       3.17       0.00       3.17        0.97    98.85   0.538
  sub63                      5.89       0.00       0.00       1.71       2.63       0.00       2.63        0.80    90.67   0.447
  sub64                      5.89       0.00       0.00       0.88       2.64       0.00       2.64        0.80    72.89   0.448
  sub65                      5.89       0.00       0.00       0.77       2.67       0.00       2.67        0.82    73.94   0.453
  sub66                      5.89       0.00       0.00       1.71       2.30       0.00       2.30        0.71    66.93   0.391
  sub67                      5.89       0.00       0.00       0.47       3.49       0.00       3.49        1.08   127.64   0.592
  sub68                      5.89       0.00       0.00       0.82       3.14       0.00       3.14        0.97   107.31   0.534
  sub69                      5.89       0.00       0.00       0.88       3.40       0.00       3.40        0.79   107.30   0.576
  sub70                      5.89       3.47       0.00       3.18       4.16       0.00       4.16        0.95    85.44   0.445
  sub71                      5.89       0.00       0.00       0.47       3.03       0.00       3.03        0.72    68.84   0.514
  sub72                      5.89       0.00       0.00       0.41       2.13       0.00       2.13        0.43    32.41   0.362
  sub73                      5.89       4.05       0.00       3.38       4.23       0.00       4.23        0.99    73.37   0.426
  sub74                      5.89       0.00       0.00       4.42       1.02       0.00       1.02        0.41    60.02   0.174
  
  
  ******************
  Node Depth Summary
  ******************
  
  ---------------------------------------------------------------------------------
                                 Average  Maximum  Maximum  Time of Max    Reported
                                   Depth    Depth      HGL   Occurrence   Max Depth
  Node                 Type       Meters   Meters   Meters  days hr:min      Meters
  ---------------------------------------------------------------------------------
  WS02001211           JUNCTION     0.63     0.71     5.55     0  03:21        0.71
  WS02001212           JUNCTION     0.36     0.43     5.49     0  03:20        0.43
  WS02001213           JUNCTION     0.58     0.67     5.43     0  03:19        0.67
  WS02003069           JUNCTION     0.39     0.51     5.10     0  02:37        0.51
  WS02003072           JUNCTION     0.46     0.58     4.95     0  02:37        0.58
  WS02003073           JUNCTION     0.27     0.35     4.41     0  02:38        0.35
  WS02003060           JUNCTION     0.35     0.45     5.39     0  02:36        0.45
  WS02003066           JUNCTION     0.21     0.29     5.84     0  02:39        0.29
  WS02003059           JUNCTION     0.63     0.73     5.42     0  02:34        0.73
  WS02003067           JUNCTION     0.52     0.68     6.00     0  02:39        0.68
  WS02004401           JUNCTION     0.61     0.82     6.82     0  02:35        0.82
  WS02004402           JUNCTION     0.64     0.84     6.80     0  02:35        0.84
  WS02004403           JUNCTION     0.67     0.86     6.79     0  02:35        0.86
  WS02004404           JUNCTION     0.74     0.93     6.78     0  02:35        0.93
  WS02004406           JUNCTION     0.75     0.93     6.76     0  02:36        0.93
  WS02004409           JUNCTION     0.43     0.63     6.40     0  02:38        0.63
  WS02004410           JUNCTION     0.45     0.65     6.37     0  02:38        0.65
  WS02004411           JUNCTION     0.47     0.66     6.34     0  02:39        0.66
  WS02004412           JUNCTION     0.48     0.67     6.31     0  02:39        0.67
  WS02004413           JUNCTION     0.64     0.83     6.30     0  02:39        0.83
  WS02004405           JUNCTION     0.74     0.93     6.78     0  02:36        0.93
  WS02006109           JUNCTION     0.68     0.92     7.54     0  02:31        0.92
  WS02006110           JUNCTION     0.68     0.89     7.47     0  02:31        0.89
  WS02006111           JUNCTION     0.19     0.27     6.98     0  02:32        0.27
  WS02006112           JUNCTION     0.77     1.00     6.89     0  02:34        1.00
  WS02006113           JUNCTION     0.30     0.43     7.32     0  02:32        0.43
  WS02006115           JUNCTION     0.50     0.71     6.85     0  02:35        0.71
  WS02006116           JUNCTION     0.58     0.79     6.83     0  02:35        0.79
  WS02006230           JUNCTION     0.62     0.94     7.68     0  02:32        0.94
  WS02006231           JUNCTION     0.40     0.61     7.73     0  02:32        0.61
  WS02006232           JUNCTION     0.53     0.73     7.77     0  02:33        0.73
  WS02006234           JUNCTION     0.44     0.65     7.81     0  02:33        0.65
  WS02006235           JUNCTION     0.47     0.68     7.84     0  02:33        0.68
  WS02006238           JUNCTION     0.49     0.70     7.85     0  02:33        0.70
  WS02006240           JUNCTION     0.37     0.59     7.89     0  02:34        0.59
  WS02006242           JUNCTION     0.41     0.65     7.92     0  02:34        0.65
  WS02006243           JUNCTION     0.28     0.52     7.94     0  02:35        0.52
  WS02006245           JUNCTION     0.25     0.49     7.97     0  02:35        0.49
  WS02006247           JUNCTION     0.26     0.50     8.00     0  02:35        0.50
  WS02006248           JUNCTION     0.22     0.43     8.02     0  02:35        0.43
  WS02006249           JUNCTION     0.25     0.46     8.06     0  02:35        0.46
  WS02006239           JUNCTION     0.44     0.66     7.87     0  02:34        0.66
  WS02006251           JUNCTION     0.23     0.44     8.11     0  02:35        0.44
  WS02006252           JUNCTION     0.21     0.35     8.59     0  02:21        0.35
  WS02006253           JUNCTION     0.26     0.47     8.11     0  02:35        0.47
  WS02006256           JUNCTION     1.02     2.35     9.28     0  00:00        1.19
  WS02004138           JUNCTION     0.14     0.17     7.42     0  00:00        0.17
  WS02004407           JUNCTION     0.20     0.28     6.60     0  02:36        0.28
  WS02006228           JUNCTION     0.67     0.95     7.60     0  02:31        0.95
  WS02006229           JUNCTION     0.64     0.94     7.63     0  02:31        0.94
  WS02006280           JUNCTION     0.06     0.15     8.42     0  02:17        0.15
  WS02006284           JUNCTION     0.35     0.48     8.88     0  02:17        0.48
  WS02006287           JUNCTION     0.08     0.21     9.17     0  02:17        0.21
  WSF200               JUNCTION     0.19     0.30     5.53     0  02:38        0.30
  HS02004901           JUNCTION     0.11     0.23    10.06     0  02:15        0.23
  HS02004881           JUNCTION     0.01     0.02     9.05     0  02:17        0.02
  HS02004876           JUNCTION     0.04     0.10     9.13     0  02:15        0.10
  HS02004870           JUNCTION     0.01     0.04     9.33     0  02:17        0.04
  HS02004862           JUNCTION     0.01     0.05     9.43     0  02:18        0.05
  HS02004856           JUNCTION     0.07     0.10     9.53     0  02:17        0.10
  HS02004852           JUNCTION     0.01     0.03     9.54     0  02:19        0.03
  HS02004848           JUNCTION     0.01     0.03     9.63     0  02:17        0.03
  HS02004842           JUNCTION     0.33     0.36     9.63     0  02:16        0.36
  HS02004837           JUNCTION     0.03     0.05     9.63     0  02:17        0.05
  HS02004830           JUNCTION     0.04     0.06     9.53     0  02:17        0.06
  HS02004824           JUNCTION     0.02     0.04     9.44     0  02:20        0.04
  HS02004817           JUNCTION     0.42     0.53     9.37     0  02:18        0.53
  HS02004807           JUNCTION     0.11     0.20     9.37     0  02:18        0.20
  HS02004802           JUNCTION     0.15     0.24     9.37     0  02:18        0.24
  HS02004799           JUNCTION     0.11     0.26     9.47     0  02:16        0.26
  HS02004792           JUNCTION     0.03     0.10     9.62     0  02:15        0.10
  HS02004788           JUNCTION     0.02     0.07     9.97     0  02:16        0.07
  HS02004785           JUNCTION     0.04     0.14    10.04     0  02:15        0.14
  HS02004777           JUNCTION     0.14     0.25    10.05     0  02:15        0.25
  HS02004770           JUNCTION     0.11     0.22    10.06     0  02:15        0.22
  HS02004480           JUNCTION     0.07     0.20     9.44     0  02:16        0.20
  HS02004479           JUNCTION     0.10     0.24     9.44     0  02:16        0.24
  HS02004478           JUNCTION     0.05     0.13     9.36     0  02:17        0.13
  YS02001745           JUNCTION     0.20     0.67     8.19     0  07:50        0.67
  YS02001748           JUNCTION     0.52     1.11     8.19     0  07:50        1.11
  YS02001751           JUNCTION     0.69     1.31     8.19     0  07:50        1.31
  YS02001754           JUNCTION     0.94     1.58     8.19     0  07:50        1.58
  YS02001762           JUNCTION     1.13     1.79     8.19     0  07:50        1.79
  YS02001765           JUNCTION     1.09     1.74     8.19     0  07:50        1.74
  YS02001767           JUNCTION     1.05     1.70     8.19     0  07:50        1.70
  YS02001770           JUNCTION     1.05     1.69     8.19     0  07:50        1.69
  YS02001774           JUNCTION     1.11     1.77     8.19     0  07:50        1.77
  YS02001779           JUNCTION     0.87     1.50     8.19     0  07:50        1.50
  YS02001882           JUNCTION     0.30     0.46     7.17     0  02:48        0.46
  YS02001884           JUNCTION     0.39     0.56     7.17     0  02:48        0.56
  YS02001759           JUNCTION     1.17     1.82     8.19     0  07:50        1.82
  YS02001887           JUNCTION     0.47     0.64     7.17     0  02:49        0.64
  YS02001890           JUNCTION     0.50     0.67     7.17     0  02:49        0.67
  YS02001898           JUNCTION     0.27     0.42     7.16     0  02:51        0.42
  YS02001901           JUNCTION     0.39     0.55     7.16     0  02:51        0.55
  YS02001904           JUNCTION     0.37     0.52     7.15     0  02:51        0.52
  YS02001907           JUNCTION     0.69     0.87     7.16     0  02:51        0.87
  YS02001910           JUNCTION     0.48     0.65     7.16     0  02:51        0.65
  YS02001915           JUNCTION     0.29     0.44     7.15     0  02:50        0.44
  YS02001918           JUNCTION     0.08     0.10     7.16     0  03:03        0.10
  YS02001619           JUNCTION     0.66     1.26     8.19     0  07:49        1.26
  YS02001629           JUNCTION     1.00     1.64     8.19     0  07:49        1.64
  YS02001641           JUNCTION     1.10     1.75     8.19     0  07:49        1.75
  YS02001644           JUNCTION     1.11     1.75     8.19     0  07:49        1.75
  YS02001652           JUNCTION     0.95     1.59     8.19     0  07:50        1.59
  YS02001655           JUNCTION     0.72     1.34     8.19     0  07:50        1.34
  YS02001920           JUNCTION     0.18     0.21     7.21     0  03:02        0.21
  YS02001923           JUNCTION     0.07     0.08     7.34     0  03:02        0.08
  YS02001926           JUNCTION     0.14     0.18     7.62     0  03:01        0.18
  YS02001929           JUNCTION     0.07     0.09     7.78     0  03:01        0.09
  YS02001658           JUNCTION     0.46     1.05     8.19     0  07:49        1.05
  YS02001661           JUNCTION     0.28     0.78     8.19     0  07:49        0.78
  YS02001664           JUNCTION     0.08     0.26     8.19     0  07:49        0.26
  YS02001622           JUNCTION     0.68     1.28     8.19     0  07:49        1.28
  YS02001633           JUNCTION     1.09     1.73     8.19     0  07:49        1.73
  YS02001649           JUNCTION     1.14     1.80     8.19     0  07:50        1.80
  YS02001757           JUNCTION     1.27     1.93     8.19     0  07:50        1.93
  YS02001895           JUNCTION     0.27     0.42     7.17     0  02:49        0.42
  YS02001625           JUNCTION     0.95     1.58     8.19     0  07:49        1.58
  YS02163301           JUNCTION     1.03     1.67     8.19     0  07:49        1.67
  YS02163601           JUNCTION     1.14     1.79     8.19     0  07:49        1.79
  YS02164001           JUNCTION     1.08     1.73     8.19     0  07:49        1.73
  YS02001647           JUNCTION     0.94     1.58     8.19     0  07:50        1.58
  YSB1154              JUNCTION     0.24     0.39     9.45     0  02:16        0.39
  YSB6556              JUNCTION     0.14     0.28     9.44     0  02:16        0.28
  YSB1174              JUNCTION     0.19     0.34     9.44     0  02:16        0.34
  YSB1171              JUNCTION     0.39     0.54     9.44     0  02:16        0.54
  YS02006553           JUNCTION     0.70     0.87     7.15     0  02:50        0.87
  YS02006561           JUNCTION     0.15     0.23     6.89     0  02:56        0.23
  YS02006556           JUNCTION     0.67     0.84     7.15     0  02:50        0.84
  YS02006558           JUNCTION     0.71     0.88     7.15     0  02:50        0.88
  YS02001783           JUNCTION     0.28     0.59     6.73     0  02:59        0.58
  YS02001784           JUNCTION     0.31     0.65     6.72     0  02:59        0.64
  YS02001786           JUNCTION     0.28     0.67     6.70     0  02:58        0.66
  YS02001788           JUNCTION     0.23     0.70     6.67     0  02:59        0.69
  YS02001790           JUNCTION     0.32     1.22     6.87     0  02:54        1.01
  YS02001791           JUNCTION     0.30     1.38     6.85     0  02:53        1.15
  YS02001793           JUNCTION     0.42     2.34     7.17     0  02:50        1.77
  WS02004139           JUNCTION     0.57     0.65     5.56     0  03:21        0.65
  WSC                  OUTFALL      0.27     0.35     1.02     0  02:38        0.35
  3                    OUTFALL      0.08     0.23     6.23     0  00:00        0.19
  4                    OUTFALL      0.00     0.00     7.00     0  00:00        0.00
  5                    OUTFALL      0.00     0.00     5.00     0  00:00        0.00
  JK-storage           STORAGE      1.79     5.80     6.60     0  02:57        5.80
  CC-storage           STORAGE      0.52     1.19     8.19     0  07:50        1.19
  XR-storage           STORAGE      5.74     7.72     5.72     0  05:06        7.72
  
  
  *******************
  Node Inflow Summary
  *******************
  
  -------------------------------------------------------------------------------------------------
                                  Maximum  Maximum                  Lateral       Total        Flow
                                  Lateral    Total  Time of Max      Inflow      Inflow     Balance
                                   Inflow   Inflow   Occurrence      Volume      Volume       Error
  Node                 Type           LPS      LPS  days hr:min    10^6 ltr    10^6 ltr     Percent
  -------------------------------------------------------------------------------------------------
  WS02001211           JUNCTION      7.35   292.86     0  03:28       0.207        6.36       0.456
  WS02001212           JUNCTION      0.00   293.09     0  03:29           0        6.34       0.250
  WS02001213           JUNCTION      0.00   293.30     0  03:29           0        6.32       0.304
  WS02003069           JUNCTION      0.32   752.68     0  02:36     0.00902        11.9       0.169
  WS02003072           JUNCTION      0.00   752.64     0  02:37           0        11.9       0.225
  WS02003073           JUNCTION      1.82   754.46     0  02:37      0.0514          12       0.239
  WS02003060           JUNCTION     16.53   752.25     0  02:36       0.466          12       0.164
  WS02003066           JUNCTION      0.00   490.26     0  02:39           0        5.23       0.057
  WS02003059           JUNCTION      0.00   293.70     0  03:28           0         6.3       0.479
  WS02003067           JUNCTION      0.00   490.24     0  02:39           0        5.23       0.130
  WS02004401           JUNCTION      0.00   493.51     0  02:33           0         5.4       0.294
  WS02004402           JUNCTION      0.00   493.08     0  02:35           0        5.39       0.286
  WS02004403           JUNCTION      0.00   492.91     0  02:35           0        5.37       0.268
  WS02004404           JUNCTION      0.16   493.04     0  02:35     0.00457        5.36       0.209
  WS02004406           JUNCTION      0.00   492.99     0  02:36           0        5.34       0.514
  WS02004409           JUNCTION      0.00   492.93     0  02:36           0         5.3       0.181
  WS02004410           JUNCTION      0.00   491.83     0  02:37           0        5.29       0.218
  WS02004411           JUNCTION      0.00   491.02     0  02:37           0        5.28       0.234
  WS02004412           JUNCTION      0.00   490.56     0  02:38           0        5.27       0.269
  WS02004413           JUNCTION      0.00   490.30     0  02:38           0        5.26       0.423
  WS02004405           JUNCTION      0.04   493.04     0  02:35     0.00107        5.35       0.318
  WS02006109           JUNCTION      1.23   491.57     0  02:31      0.0347        5.47       0.322
  WS02006110           JUNCTION      0.00   491.57     0  02:31           0        5.45       0.267
  WS02006111           JUNCTION      0.00   508.37     0  02:32           0        5.43       0.046
  WS02006112           JUNCTION      9.64   499.28     0  02:32      0.0263        5.45       0.402
  WS02006113           JUNCTION      0.00   491.73     0  02:31           0        5.43       0.107
  WS02006115           JUNCTION      0.00   496.23     0  02:33           0        5.43       0.246
  WS02006116           JUNCTION      0.00   494.55     0  02:33           0        5.42       0.248
  WS02006230           JUNCTION     10.28   329.04     0  03:12        0.29        4.56       0.270
  WS02006231           JUNCTION      0.00   318.20     0  03:12           0        4.27       0.065
  WS02006232           JUNCTION      0.00   317.94     0  03:11           0        4.28       0.273
  WS02006234           JUNCTION      0.00   317.61     0  03:11           0        4.29       0.069
  WS02006235           JUNCTION      0.00   317.44     0  03:11           0        4.32       0.183
  WS02006238           JUNCTION      0.00   266.03     0  02:40           0        1.93       0.219
  WS02006240           JUNCTION      0.00   252.08     0  02:41           0        1.92       0.223
  WS02006242           JUNCTION      0.00   245.63     0  02:41           0        1.91       0.255
  WS02006243           JUNCTION      0.00   238.79     0  02:41           0         1.9      -0.195
  WS02006245           JUNCTION      0.00   235.29     0  02:41           0         1.9       0.125
  WS02006247           JUNCTION      0.00   234.49     0  02:26           0         1.9      -0.006
  WS02006248           JUNCTION      0.00   235.77     0  02:25           0         1.9      -0.075
  WS02006249           JUNCTION      0.00   237.11     0  02:25           0         1.9       0.129
  WS02006239           JUNCTION      0.00   259.40     0  02:40           0        1.92       0.276
  WS02006251           JUNCTION      0.08   238.61     0  02:23     0.00217        1.91      -0.007
  WS02006252           JUNCTION      0.00   200.00     0  02:21           0        1.75       0.004
  WS02006253           JUNCTION      1.47    42.46     0  02:16     0.00341       0.152      -0.184
  WS02006256           JUNCTION      0.00   600.00     0  00:00           0        4.47       0.047
  WS02004138           JUNCTION      0.00   285.00     0  00:00           0        6.19       0.070
  WS02004407           JUNCTION      0.00   492.96     0  02:36           0        5.31       0.084
  WS02006228           JUNCTION      0.00   490.34     0  02:31           0        5.44       0.215
  WS02006229           JUNCTION      0.00   490.34     0  02:31           0        5.45       0.168
  WS02006280           JUNCTION      0.00   217.50     0  02:17           0       0.907       0.008
  WS02006284           JUNCTION      0.10   217.48     0  02:17      0.0027       0.908       0.117
  WS02006287           JUNCTION      0.00   217.35     0  02:17           0       0.906       0.080
  WSF200               JUNCTION      0.00   490.28     0  02:39           0        5.22       0.044
  HS02004901           JUNCTION     11.93    11.93     0  02:09      0.0317      0.0318       5.839
  HS02004881           JUNCTION      4.82    41.34     0  02:16      0.0138       0.145       0.212
  HS02004876           JUNCTION      7.65    36.85     0  02:17      0.0265       0.132       0.400
  HS02004870           JUNCTION      8.49    29.37     0  02:17      0.0262       0.106       0.101
  HS02004862           JUNCTION      6.94    21.46     0  02:17      0.0318      0.0798       0.212
  HS02004856           JUNCTION      6.29    14.58     0  02:17      0.0197      0.0494       2.994
  HS02004852           JUNCTION      0.00     8.69     0  02:17           0      0.0298       0.170
  HS02004848           JUNCTION     13.82    13.82     0  02:19      0.0624      0.0624       0.070
  HS02004842           JUNCTION      0.00     5.61     0  02:29           0      0.0456      39.893
  HS02004837           JUNCTION     19.93    24.68     0  02:16       0.225       0.257       0.317
  HS02004830           JUNCTION      0.15    24.82     0  02:17     0.00423       0.248       0.500
  HS02004824           JUNCTION     15.50    40.13     0  02:20      0.0817       0.328       0.164
  HS02004817           JUNCTION      0.60    40.73     0  02:20      0.0169       0.344       5.084
  HS02004807           JUNCTION     15.97    55.26     0  02:18      0.0481       0.376       1.137
  HS02004802           JUNCTION      0.00    55.58     0  02:20           0       0.372       1.102
  HS02004799           JUNCTION     12.29   138.26     0  02:15      0.0389       0.471       0.485
  HS02004792           JUNCTION     54.98   126.25     0  02:14        0.17       0.433       0.095
  HS02004788           JUNCTION     18.33    73.51     0  02:15       0.101       0.264       0.147
  HS02004785           JUNCTION      0.15    55.59     0  02:15     0.00423       0.164       0.294
  HS02004777           JUNCTION      0.03    55.94     0  02:13    0.000846       0.165       3.244
  HS02004770           JUNCTION     46.61    57.19     0  02:11       0.135       0.166       1.906
  HS02004480           JUNCTION      0.00   162.98     0  02:15           0        0.55       0.132
  HS02004479           JUNCTION      0.00    25.27     0  02:18           0       0.091       0.808
  HS02004478           JUNCTION      0.00   217.35     0  02:17           0       0.906       0.069
  YS02001745           JUNCTION     76.78   147.08     0  05:26       0.836       0.924       1.055
  YS02001748           JUNCTION      0.04   188.19     0  04:58     0.00127       0.977       2.423
  YS02001751           JUNCTION      0.01   201.59     0  05:12     0.00031       0.871       2.735
  YS02001754           JUNCTION      0.26   105.80     0  02:55     0.00733       0.802       3.087
  YS02001762           JUNCTION      0.00   120.09     0  02:40           0       0.903       2.417
  YS02001765           JUNCTION      0.00   125.32     0  02:36           0       0.906       2.781
  YS02001767           JUNCTION      0.54   131.81     0  02:58      0.0151       0.927       4.008
  YS02001770           JUNCTION     99.01   134.69     0  02:56       0.977        1.03       3.162
  YS02001774           JUNCTION      0.00    48.98     0  04:40           0        0.14      22.076
  YS02001779           JUNCTION      0.01    49.37     0  04:40    0.000141      0.0629      29.709
  YS02001882           JUNCTION      0.00     4.33     0  02:09           0     0.00532      46.039
  YS02001884           JUNCTION      0.00    12.01     0  02:06           0      0.0213      29.710
  YS02001759           JUNCTION     96.94   212.87     0  02:56       0.912        1.78       1.317
  YS02001887           JUNCTION    128.09   128.09     0  02:40        1.09         1.1       0.657
  YS02001890           JUNCTION      0.00   127.97     0  02:42           0        1.07       0.736
  YS02001898           JUNCTION      0.00   127.67     0  02:43           0        1.06       0.207
  YS02001901           JUNCTION      0.00   127.57     0  02:43           0        1.06       0.522
  YS02001904           JUNCTION      0.00   126.98     0  02:42           0        1.06       0.486
  YS02001907           JUNCTION      0.00   228.71     0  02:53           0        2.27       0.980
  YS02001910           JUNCTION      0.00   104.28     0  03:01           0        1.22       0.837
  YS02001915           JUNCTION     68.86   103.63     0  03:01       0.715        1.23       0.373
  YS02001918           JUNCTION      0.00    35.27     0  03:02           0       0.513       0.221
  YS02001619           JUNCTION     66.93    66.93     0  02:55       0.706       0.708       1.802
  YS02001629           JUNCTION      0.00   107.03     0  05:02           0       0.661       4.618
  YS02001641           JUNCTION      0.00   150.95     0  02:54           0        1.35       1.583
  YS02001644           JUNCTION     72.93   223.08     0  03:05       0.803        2.12       1.253
  YS02001652           JUNCTION      0.00   114.97     0  02:42           0       0.751       3.127
  YS02001655           JUNCTION      0.15   175.97     0  04:54     0.00434       0.808       3.135
  YS02001920           JUNCTION      2.87    35.29     0  03:02      0.0809       0.515       0.398
  YS02001923           JUNCTION      0.04    32.43     0  03:01     0.00106       0.435       0.070
  YS02001926           JUNCTION      0.05    32.45     0  03:01     0.00147       0.436       0.499
  YS02001929           JUNCTION     32.41    32.41     0  03:01       0.434       0.434       0.068
  YS02001658           JUNCTION      0.00   155.11     0  04:38           0       0.908       2.661
  YS02001661           JUNCTION      0.00   145.00     0  05:09           0       0.888       2.095
  YS02001664           JUNCTION     90.67    90.67     0  02:43       0.796       0.801       0.355
  YS02001622           JUNCTION      0.00    84.67     0  02:50           0       0.732       4.539
  YS02001633           JUNCTION     74.14   153.79     0  03:00       0.827        1.41       2.289
  YS02001649           JUNCTION      0.00   320.66     0  02:55           0        2.77       1.362
  YS02001757           JUNCTION      0.00   564.46     0  02:56           0        5.22       1.804
  YS02001895           JUNCTION      0.00   127.63     0  02:43           0        1.07       0.352
  YS02001625           JUNCTION      0.00   110.81     0  05:02           0       0.732       5.632
  YS02163301           JUNCTION      0.00    94.80     0  03:43           0       0.606       4.099
  YS02163601           JUNCTION      0.11   150.21     0  02:53      0.0031        1.37       2.235
  YS02164001           JUNCTION      0.00   148.81     0  02:52           0        1.35       1.490
  YS02001647           JUNCTION      0.00   225.08     0  03:04           0        2.08       1.399
  YSB1154              JUNCTION     13.60    13.60     0  02:14      0.0472      0.0485       3.067
  YSB6556              JUNCTION      0.00    13.57     0  02:17           0      0.0495       2.583
  YSB1174              JUNCTION     13.59    13.59     0  02:09      0.0344      0.0354       3.761
  YSB1171              JUNCTION      0.00    25.32     0  02:15           0      0.0904       7.514
  YS02006553           JUNCTION      0.00   228.76     0  02:53           0        2.26       0.635
  YS02006561           JUNCTION      0.00   339.70     0  02:50           0         3.2       0.021
  YS02006556           JUNCTION      0.00   228.82     0  02:53           0        2.27       0.459
  YS02006558           JUNCTION    108.19   335.96     0  02:50       0.991        3.23       0.140
  YS02001783           JUNCTION      0.00   338.18     0  02:56           0         3.2       0.048
  YS02001784           JUNCTION      1.06   357.34     0  02:56      0.0299        3.23       0.079
  YS02001786           JUNCTION      0.06   349.70     0  03:00     0.00159        3.23       0.077
  YS02001788           JUNCTION      0.07   362.29     0  02:59       0.002        3.23       0.044
  YS02001790           JUNCTION      0.15   354.89     0  03:00     0.00437        3.23       0.046
  YS02001791           JUNCTION      0.00   357.01     0  02:53           0        3.23       0.022
  YS02001793           JUNCTION      0.00   407.42     0  02:49           0        3.23       0.006
  WS02004139           JUNCTION      0.32   290.33     0  00:00     0.00905        6.19       0.528
  WSC                  OUTFALL       0.00   754.45     0  02:38           0        11.9       0.000
  3                    OUTFALL       0.00   597.65     0  00:00           0        2.06       0.000
  4                    OUTFALL       0.00     0.00     0  00:00           0           0       0.000 ltr
  5                    OUTFALL       0.00     0.00     0  00:00           0           0       0.000 ltr
  JK-storage           STORAGE       0.00   593.45     0  02:50           0        3.38     -24.776
  CC-storage           STORAGE       0.00   562.86     0  02:56           0        5.12       1.193
  XR-storage           STORAGE     324.79   324.79     0  02:50        7.04        7.64      -0.000
  
  
  **********************
  Node Surcharge Summary
  **********************
  
  Surcharging occurs when water rises above the top of the highest conduit.
  ---------------------------------------------------------------------
                                               Max. Height   Min. Depth
                                   Hours       Above Crown    Below Rim
  Node                 Type      Surcharged         Meters       Meters
  ---------------------------------------------------------------------
  WS02006109           JUNCTION        0.67          0.099        1.721
  WS02006112           JUNCTION        0.08          0.004        1.676
  WS02006232           JUNCTION        0.20          0.033        1.447
  WS02006256           JUNCTION        0.01          1.050        0.000
  WS02006228           JUNCTION        0.63          0.115        2.085
  YS02001748           JUNCTION        0.24          0.030        1.160
  YS02001751           JUNCTION        1.98          0.308        0.892
  YS02001754           JUNCTION        3.17          0.529        0.621
  YS02001762           JUNCTION        5.15          0.787        0.363
  YS02001765           JUNCTION        4.99          0.737        0.363
  YS02001767           JUNCTION        4.34          0.698        0.332
  YS02001770           JUNCTION        4.04          0.662        0.258
  YS02001774           JUNCTION        5.11          0.765        0.285
  YS02001779           JUNCTION        3.04          0.501        0.179
  YS02001759           JUNCTION        5.22          0.823        0.387
  YS02001619           JUNCTION        1.73          0.259        0.351
  YS02001629           JUNCTION        1.73          0.258        0.212
  YS02001641           JUNCTION        5.08          0.750        0.350
  YS02001644           JUNCTION        5.08          0.755        0.165
  YS02001652           JUNCTION        3.29          0.562        0.568
  YS02001655           JUNCTION        2.11          0.338        0.862
  YS02001658           JUNCTION        0.36          0.046        1.254
  YS02001622           JUNCTION        1.85          0.284        0.336
  YS02001633           JUNCTION        4.81          0.713        0.347
  YS02001649           JUNCTION        5.17          0.797        0.253
  YS02001757           JUNCTION        5.36          0.926        0.284
  YS02001625           JUNCTION        3.40          0.583        0.197
  YS02163301           JUNCTION        4.13          0.670        0.360
  YS02163601           JUNCTION        5.17          0.789        0.291
  YS02164001           JUNCTION        5.01          0.729        0.371
  YS02001647           JUNCTION        3.37          0.577        0.323
  YS02001790           JUNCTION        0.63          0.423        0.734
  YS02001791           JUNCTION        0.77          0.576        1.344
  YS02001793           JUNCTION        0.98          1.342        1.258
  
  
  *********************
  Node Flooding Summary
  *********************
  
  Flooding refers to all water that overflows a node, whether it ponds or not.
  --------------------------------------------------------------------------
                                                             Total   Maximum
                                 Maximum   Time of Max       Flood    Ponded
                        Hours       Rate    Occurrence      Volume     Depth
  Node                 Flooded       LPS   days hr:min    10^6 ltr    Meters
  --------------------------------------------------------------------------
  WS02006256              0.01    406.11      0  00:00       0.001     0.000
  JK-storage              0.30     63.41      0  02:59       0.027     0.000
  XR-storage              2.72    161.83      0  05:06       0.532     0.000
  
  
  **********************
  Storage Volume Summary
  **********************
  
  --------------------------------------------------------------------------------------------------
                         Average     Avg  Evap Exfil       Maximum     Max    Time of Max    Maximum
                          Volume    Pcnt  Pcnt  Pcnt        Volume    Pcnt     Occurrence    Outflow
  Storage Unit           1000 m3    Full  Loss  Loss       1000 m3    Full    days hr:min        LPS
  --------------------------------------------------------------------------------------------------
  JK-storage               0.090      31     0     0         0.291     100       0  02:57     600.00
  CC-storage               1.439       9     0     0         3.304      21       0  07:50     200.00
  XR-storage               0.689      74     0     0         0.926     100       0  05:06     285.00
  
  
  ***********************
  Outfall Loading Summary
  ***********************
  
  -----------------------------------------------------------
                         Flow       Avg       Max       Total
                         Freq      Flow      Flow      Volume
  Outfall Node           Pcnt       LPS       LPS    10^6 ltr
  -----------------------------------------------------------
  WSC                   99.99    491.16    754.45      11.924
  3                     85.06    137.27    597.65       2.057
  4                      0.00      0.00      0.00       0.000
  5                      0.00      0.00      0.00       0.000
  -----------------------------------------------------------
  System                46.26    628.43   1050.08      13.981
  
  
  ********************
  Link Flow Summary
  ********************
  
  -----------------------------------------------------------------------------
                                 Maximum  Time of Max   Maximum    Max/    Max/
                                  |Flow|   Occurrence   |Veloc|    Full    Full
  Link                 Type          LPS  days hr:min     m/sec    Flow   Depth
  -----------------------------------------------------------------------------
  WS02003066WSF200     CONDUIT    490.28     0  02:39      2.66    0.08    0.22
  WS02006287WS02006284 CONDUIT    217.39     0  02:17      1.65    0.10    0.22
  WS02006284WS02006280 CONDUIT    217.50     0  02:17      1.89    0.09    0.20
  WS02006280WS02006229 CONDUIT    217.50     0  02:17      3.04    0.05    0.15
  WS02006229WS02006228 CONDUIT    490.34     0  02:31      0.98    1.62    1.00
  WS02006256WS02006235 CONDUIT    177.52     0  00:01      2.73    1.88    1.00
  WS02006253WS02006251 CONDUIT     42.62     0  02:17      0.50    0.13    0.64
  WS02006252WS02006251 CONDUIT    200.38     0  02:21      1.97    0.74    0.76
  WS02006251WS02006249 CONDUIT    237.11     0  02:25      0.98    0.68    0.65
  WS02006249WS02006248 CONDUIT    235.77     0  02:25      1.05    1.29    0.63
  WS02006248WS02006247 CONDUIT    234.49     0  02:26      1.02    0.51    0.66
  WS02006247WS02006245 CONDUIT    235.29     0  02:41      0.98    1.87    0.70
  WS02006245WS02006243 CONDUIT    238.79     0  02:41      1.03    0.71    0.71
  WS02006243WS02006242 CONDUIT    245.63     0  02:41      0.84    0.52    0.81
  WS02006242WS02006240 CONDUIT    252.08     0  02:41      0.79    1.00    0.88
  WS02006240WS02006239 CONDUIT    259.40     0  02:40      0.85    0.82    0.87
  WS02006239WS02006238 CONDUIT    266.03     0  02:40      0.76    0.85    0.96
  WS02006238WS02006235 CONDUIT    269.55     0  02:40      1.32    0.60    0.98
  WS02006235WS02006234 CONDUIT    317.61     0  03:11      0.95    3.35    0.93
  WS02006234WS02006232 CONDUIT    317.94     0  03:11      1.17    0.64    0.97
  WS02006232WS02006231 CONDUIT    318.20     0  03:12      0.94    0.67    0.93
  WS02006231WS02006230 CONDUIT    318.76     0  03:12      1.29    4.84    0.83
  WS02006230WS02006229 CONDUIT    330.03     0  03:12      0.86    7.34    1.00
  WS02006228WS02006109 CONDUIT    490.34     0  02:31      0.98    2.14    1.00
  WS02006116WS02004401 CONDUIT    493.51     0  02:33      0.73    0.68    0.80
  WS02006115WS02006116 CONDUIT    494.55     0  02:33      0.83    0.63    0.72
  WS02006113WS02006111 CONDUIT    508.37     0  02:32      2.38    0.61    0.44
  WS02006112WS02006115 CONDUIT    496.23     0  02:33      0.70    0.29    0.85
  WS02006111WS02006112 CONDUIT    494.00     0  02:32      1.39    0.23    0.66
  WS02006110WS02006113 CONDUIT    491.73     0  02:31      1.18    0.45    0.77
  WS02006109WS02006110 CONDUIT    491.57     0  02:31      0.98    0.95    0.99
  WS02004411WS02004412 CONDUIT    490.56     0  02:38      0.88    0.70    0.67
  WS02004401WS02004402 CONDUIT    493.08     0  02:35      0.71    0.59    0.83
  WS02004413WS02003067 CONDUIT    490.24     0  02:39      1.06    0.21    0.57
  WS02004412WS02004413 CONDUIT    490.30     0  02:38      0.77    0.33    0.75
  WS02004410WS02004411 CONDUIT    491.02     0  02:37      0.90    0.67    0.66
  WS02004409WS02004410 CONDUIT    491.83     0  02:37      0.93    0.64    0.64
  WS02004407WS02004409 CONDUIT    492.93     0  02:36      1.42    0.17    0.46
  WS02004406WS02004407 CONDUIT    492.96     0  02:36      0.99    0.22    0.61
  WS02004405WS02004406 CONDUIT    492.99     0  02:36      0.65    0.97    0.93
  WS02004404WS02004405 CONDUIT    493.00     0  02:35      0.65    4.83    0.93
  WS02004403WS02004404 CONDUIT    492.88     0  02:35      0.66    0.36    0.90
  WS02004402WS02004403 CONDUIT    492.91     0  02:35      0.69    0.71    0.85
  WS02004139WS02001211 CONDUIT    285.51     0  03:28      0.80    0.36    0.52
  WS02004138WS02004139 CONDUIT    290.01     0  00:00      3.34    0.06    0.38
  WS02003067WS02003066 CONDUIT    490.26     0  02:39      1.15    0.16    0.40
  WS02001213WS02003059 CONDUIT    293.70     0  03:28      0.80    0.48    0.69
  WS02001212WS02001213 CONDUIT    293.30     0  03:29      1.19    0.45    0.39
  WS02001211WS02001212 CONDUIT    293.09     0  03:29      0.67    0.22    0.57
  WS02003072WS02003073 CONDUIT    752.64     0  02:37      1.60    1.63    0.43
  WS02003069WS02003072 CONDUIT    752.64     0  02:37      1.51    0.36    0.45
  WS02003060WS02003069 CONDUIT    752.36     0  02:36      1.77    0.29    0.40
  WS02003059WS02003060 CONDUIT    294.25     0  03:27      0.82    0.19    0.59
  HS02004901HS02004770 CONDUIT     10.98     0  02:14      0.05    0.04    0.33
  HS02004876HS02004881 CONDUIT     36.93     0  02:17      0.59    0.39    0.09
  HS02004870HS02004876 CONDUIT     29.35     0  02:17      0.41    0.02    0.10
  HS02004842HS02004848 CONDUIT      5.61     0  02:29      0.03    0.00    0.28
  HS02004837HS02004842 CONDUIT      5.81     0  02:30      0.41    0.00    0.29
  HS02004830HS02004837 CONDUIT     24.67     0  02:17      0.45    0.02    0.08
  HS02004824HS02004830 CONDUIT     24.81     0  02:17      0.49    0.03    0.07
  HS02004817HS02004824 CONDUIT     40.13     0  02:20      0.17    0.02    0.40
  HS02004770HS02004777 CONDUIT     55.91     0  02:13      0.24    0.10    0.34
  HS02004799HS02004480 CONDUIT    138.06     0  02:15      0.61    0.17    0.32
  HS02004792HS02004799 CONDUIT    126.18     0  02:15      0.70    0.08    0.26
  HS02004788HS02004792 CONDUIT     73.44     0  02:16      0.85    0.05    0.12
  HS02004785HS02004788 CONDUIT     55.48     0  02:16      0.53    0.42    0.15
  HS02004777HS02004785 CONDUIT     55.44     0  02:15      0.29    0.07    0.28
  HS02004480HS02004478 CONDUIT    162.92     0  02:16      0.99    0.69    0.24
  HS02004479HS02004480 CONDUIT     25.53     0  02:18      0.16    0.02    0.31
  HS02004862HS02004870 CONDUIT     21.42     0  02:18      0.48    0.02    0.06
  HS02004848HS02004852 CONDUIT      8.69     0  02:17      0.32    0.01    0.04
  HS02004856HS02004862 CONDUIT     14.54     0  02:17      0.35    0.01    0.06
  HS02004852HS02004856 CONDUIT      8.65     0  02:19      0.13    0.01    0.09
  HS02004802HS02004478 CONDUIT     56.01     0  02:21      0.31    0.05    0.26
  HS02004478WS02006287 CONDUIT    217.35     0  02:17      1.35    0.06    0.18
  HS02004817HS02004807 CONDUIT     41.32     0  02:22      0.11    0.02    0.52
  HS02004807HS02004802 CONDUIT     55.58     0  02:20      0.26    0.11    0.31
  YS02001759YS02001757 CONDUIT    216.36     0  02:56      0.28    0.15    1.00
  YS02001762YS02001759 CONDUIT    117.09     0  02:56      0.18    0.13    1.00
  YS02001765YS02001762 CONDUIT    120.09     0  02:40      0.23    0.11    1.00
  YS02001770YS02001767 CONDUIT    131.28     0  02:58      0.31    0.52    1.00
  YS02001774YS02001770 CONDUIT     48.98     0  04:40      0.14    0.03    1.00
  YS02001779YS02001774 CONDUIT     49.36     0  04:40      0.07    0.02    1.00
  YS02001649YS02001757 CONDUIT    318.87     0  02:58      0.41    0.19    1.00
  YS02001767YS02001765 CONDUIT    125.32     0  02:36      0.26    0.16    1.00
  YS02006561YS02001783 CONDUIT    338.18     0  02:56      1.82    0.18    0.51
  YS02001783YS02001784 CONDUIT    356.28     0  02:56      1.26    0.49    0.77
  YS02001784YS02001785 CONDUIT    349.64     0  03:00      1.35    0.81    0.82
  YS02001788YS02001790 CONDUIT    354.73     0  03:00      1.91    0.26    0.94
  YS02001790YS02001791 CONDUIT    357.01     0  02:53      2.25    0.39    1.00
  YS02001791YS02001793 CONDUIT    356.33     0  02:48      4.48    0.15    1.00
  YS02001910YS02001907 CONDUIT    104.53     0  03:01      0.49    0.06    0.75
  YS02001786YS02001788 CONDUIT    362.22     0  02:59      1.81    0.70    0.85
  YS02001915YS02001910 CONDUIT    104.28     0  03:01      0.45    0.05    0.54
  YS02001918YS02001915 CONDUIT     35.26     0  03:03      0.44    0.02    0.27
  YS02001923YS02001920 CONDUIT     32.42     0  03:02      0.46    0.01    0.14
  YS02001926YS02001923 CONDUIT     32.39     0  03:01      0.50    0.05    0.14
  YS02001929YS02001926 CONDUIT     32.39     0  03:01      0.53    0.02    0.13
  YS02001920YS02001918 CONDUIT     35.27     0  03:02      0.47    0.03    0.15
  YS02001629YS02163301 CONDUIT     94.80     0  03:43      0.12    0.12    1.00
  YS02001619YS02001622 CONDUIT     84.67     0  02:50      0.66    0.12    1.00
  YS02001622YS02001625 CONDUIT    110.81     0  05:02      0.26    0.06    1.00
  YS02001625YS02001629 CONDUIT    107.03     0  05:02      0.26    0.05    1.00
  YS02163301YS02001633 CONDUIT     81.54     0  03:05      0.11    0.08    1.00
  YS02163601YS02164001 CONDUIT    148.81     0  02:52      0.19    0.13    1.00
  YS02164001YS02001641 CONDUIT    150.95     0  02:54      0.19    0.21    1.00
  YS02001641YS02001644 CONDUIT    153.54     0  03:07      0.20    0.50    1.00
  YS02001647YS02001649 CONDUIT    238.36     0  03:02      0.31    0.13    1.00
  YS02006553YS02006556 CONDUIT    228.82     0  02:53      0.33    0.20    0.83
  YS02006556YS02006558 CONDUIT    229.07     0  02:56      0.32    0.18    0.86
  YSB6556YSB1171       CONDUIT     13.82     0  02:18      0.06    0.01    0.58
  YS02001907YS02006553 CONDUIT    228.76     0  02:53      0.27    0.27    0.95
  YS02006558YS02006561 CONDUIT    339.70     0  02:50      2.36    0.75    0.51
  YS02001633YS02163601 CONDUIT    150.10     0  02:53      0.19    0.16    1.00
  YS02001644YS02001647 CONDUIT    225.08     0  03:04      0.29    0.13    1.00
  YS02001745YS02001748 CONDUIT    178.76     0  05:13      1.42    0.07    0.83
  YS02001748YS02001751 CONDUIT    189.80     0  05:12      1.11    0.10    1.00
  YS02001751YS02001754 CONDUIT    105.54     0  02:55      0.98    0.05    1.00
  YS02001754YS02001757 CONDUIT    113.81     0  03:45      0.33    0.05    1.00
  YS02001882YS02001884 CONDUIT      4.33     0  02:09      0.06    0.00    0.48
  YS02001884YS02001887 CONDUIT     12.01     0  02:06      0.06    0.02    0.57
  YS02001890YS02001895 CONDUIT    127.63     0  02:43      0.29    0.06    0.54
  YS02001895YS02001898 CONDUIT    127.67     0  02:43      0.49    0.22    0.40
  YS02001898YS02001901 CONDUIT    127.57     0  02:43      0.34    0.08    0.48
  YS02001901YS02001904 CONDUIT    126.98     0  02:42      0.30    0.20    0.54
  YS02001904YS02001907 CONDUIT    126.76     0  02:43      0.22    0.04    0.69
  YS02001887YS02001890 CONDUIT    127.97     0  02:42      0.25    0.22    0.63
  YS02001652YS02001649 CONDUIT    129.64     0  02:38      0.33    0.06    1.00
  YS02001655YS02001652 CONDUIT    114.97     0  02:42      1.05    0.06    1.00
  YS02001658YS02001655 CONDUIT    146.95     0  03:39      1.28    0.06    1.00
  YS02001661YS02001658 CONDUIT    155.11     0  04:38      1.47    0.06    0.86
  YS02001664YS02001661 CONDUIT     90.67     0  02:43      1.14    0.03    0.52
  YSB1154YSB6556       CONDUIT     13.57     0  02:17      0.19    0.02    0.47
  YSB1174YSB1171       CONDUIT     12.64     0  02:10      0.06    0.02    0.59
  YSB1171HS02004479    CONDUIT     25.27     0  02:18      0.54    0.02    0.46
  HS02004881HS02006253 CONDUIT     41.33     0  02:17      1.70    0.01    0.11
  YS02001793JiankangQianchi CONDUIT    593.45     0  02:50     12.93    0.05    1.00
  YS02001757CaochengTiaoxuchi CONDUIT    562.86     0  02:56      1.20    0.25    1.00
  WSF200WS02003060     CONDUIT    490.79     0  02:39      1.69    0.11    0.31
  1                    CONDUIT    754.45     0  02:38      3.08    0.26    0.35
  2                    CONDUIT      0.00     0  00:00      0.00    0.00    0.00
  3                    CONDUIT    597.65     0  00:00     10.05    0.95    0.86
  4                    CONDUIT      0.00     0  00:00      0.00    0.00    0.00
  CC-Pump-1            PUMP       200.00     0  02:21              1.00
  CC-Pump-2            PUMP         0.00     0  00:00              0.00
  JK-Pump-1            PUMP       300.00     0  00:00              1.00
  JK-Pump-2            PUMP       300.00     0  00:00              1.00
  XR-Pump-1            PUMP        95.00     0  02:20              1.00
  XR-Pump-2            PUMP        95.00     0  00:00              1.00
  XR-Pump-3            PUMP        95.00     0  00:00              1.00
  XR-Pump-4            PUMP        95.00     0  00:00              1.00
  
  
  ***************************
  Flow Classification Summary
  ***************************
  
  -------------------------------------------------------------------------------------
                      Adjusted    ---------- Fraction of Time in Flow Class ---------- 
                       /Actual         Up    Down  Sub   Sup   Up    Down  Norm  Inlet 
  Conduit               Length    Dry  Dry   Dry   Crit  Crit  Crit  Crit  Ltd   Ctrl  
  -------------------------------------------------------------------------------------
  WS02003066WSF200        1.00   0.09  0.00  0.00  0.00  0.91  0.00  0.00  0.68  0.00
  WS02006287WS02006284    1.00   0.04  0.02  0.00  0.63  0.31  0.00  0.00  0.77  0.00
  WS02006284WS02006280    1.00   0.05  0.00  0.00  0.00  0.00  0.00  0.95  0.00  0.00
  WS02006280WS02006229    1.00   0.05  0.00  0.00  0.00  0.00  0.00  0.95  0.00  0.00
  WS02006229WS02006228    1.00   0.00  0.00  0.00  0.98  0.00  0.00  0.02  0.00  0.00
  WS02006256WS02006235    1.00   0.00  0.00  0.00  0.99  0.01  0.00  0.00  0.00  0.00
  WS02006253WS02006251    1.00   0.03  0.01  0.00  0.95  0.00  0.00  0.00  0.00  0.00
  WS02006252WS02006251    1.00   0.10  0.04  0.00  0.00  0.00  0.86  0.00  0.00  0.00
  WS02006251WS02006249    1.00   0.00  0.00  0.00  1.00  0.00  0.00  0.00  0.63  0.00
  WS02006249WS02006248    1.00   0.00  0.02  0.00  0.57  0.00  0.41  0.00  0.00  0.00
  WS02006248WS02006247    1.00   0.02  0.00  0.00  0.96  0.00  0.00  0.01  0.53  0.00
  WS02006247WS02006245    1.00   0.02  0.00  0.00  0.95  0.00  0.00  0.02  0.00  0.00
  WS02006245WS02006243    1.00   0.02  0.00  0.00  0.92  0.00  0.00  0.06  0.01  0.00
  WS02006243WS02006242    1.00   0.01  0.01  0.00  0.98  0.00  0.00  0.00  0.27  0.00
  WS02006242WS02006240    1.00   0.01  0.00  0.00  0.99  0.00  0.00  0.00  0.00  0.00
  WS02006240WS02006239    1.00   0.00  0.00  0.00  0.94  0.00  0.00  0.06  0.02  0.00
  WS02006239WS02006238    1.00   0.00  0.00  0.00  1.00  0.00  0.00  0.00  0.00  0.00
  WS02006238WS02006235    1.00   0.00  0.00  0.00  1.00  0.00  0.00  0.00  0.00  0.00
  WS02006235WS02006234    1.00   0.00  0.00  0.00  0.93  0.00  0.07  0.00  0.00  0.00
  WS02006234WS02006232    1.00   0.00  0.00  0.00  1.00  0.00  0.00  0.00  0.00  0.00
  WS02006232WS02006231    1.00   0.00  0.00  0.00  0.99  0.00  0.01  0.00  0.00  0.00
  WS02006231WS02006230    1.00   0.01  0.00  0.00  0.47  0.00  0.52  0.00  0.00  0.00
  WS02006230WS02006229    1.00   0.00  0.00  0.00  0.98  0.00  0.00  0.02  0.01  0.00
  WS02006228WS02006109    1.00   0.00  0.00  0.00  0.99  0.00  0.00  0.00  0.00  0.00
  WS02006116WS02004401    1.00   0.03  0.00  0.00  0.97  0.00  0.00  0.00  0.00  0.00
  WS02006115WS02006116    1.00   0.03  0.00  0.00  0.96  0.00  0.00  0.02  0.01  0.00
  WS02006113WS02006111    1.00   0.02  0.00  0.00  0.00  0.98  0.00  0.00  0.17  0.00
  WS02006112WS02006115    1.00   0.02  0.00  0.00  0.97  0.00  0.00  0.00  0.00  0.00
  WS02006111WS02006112    1.00   0.02  0.00  0.00  0.97  0.00  0.00  0.00  0.98  0.00
  WS02006110WS02006113    1.00   0.02  0.00  0.00  0.98  0.00  0.00  0.00  0.00  0.00
  WS02006109WS02006110    1.00   0.00  0.02  0.00  0.98  0.00  0.00  0.00  0.00  0.00
  WS02004411WS02004412    1.00   0.06  0.00  0.00  0.94  0.00  0.00  0.00  0.00  0.00
  WS02004401WS02004402    1.00   0.03  0.00  0.00  0.97  0.00  0.00  0.00  0.00  0.00
  WS02004413WS02003067    1.00   0.07  0.02  0.00  0.00  0.00  0.92  0.00  0.00  0.00
  WS02004412WS02004413    1.00   0.06  0.00  0.00  0.94  0.00  0.00  0.00  0.03  0.00
  WS02004410WS02004411    1.00   0.06  0.00  0.00  0.94  0.00  0.00  0.00  0.01  0.00
  WS02004409WS02004410    1.00   0.06  0.00  0.00  0.94  0.00  0.00  0.00  0.00  0.00
  WS02004407WS02004409    1.00   0.06  0.00  0.00  0.93  0.00  0.00  0.00  0.80  0.00
  WS02004406WS02004407    1.00   0.00  0.06  0.00  0.94  0.00  0.00  0.00  0.00  0.00
  WS02004405WS02004406    1.00   0.00  0.00  0.00  1.00  0.00  0.00  0.00  0.02  0.00
  WS02004404WS02004405    1.00   0.00  0.00  0.00  1.00  0.00  0.00  0.00  0.00  0.00
  WS02004403WS02004404    1.00   0.00  0.03  0.00  0.97  0.00  0.00  0.00  0.02  0.00
  WS02004402WS02004403    1.00   0.03  0.00  0.00  0.97  0.00  0.00  0.00  0.00  0.00
  WS02004139WS02001211    1.00   0.00  0.00  0.00  0.99  0.00  0.01  0.00  0.00  0.00
  WS02004138WS02004139    1.00   0.00  0.00  0.00  0.98  0.01  0.00  0.00  1.00  0.00
  WS02003067WS02003066    1.00   0.08  0.01  0.00  0.91  0.00  0.00  0.00  0.00  0.00
  WS02001213WS02003059    1.00   0.00  0.00  0.00  0.99  0.00  0.00  0.00  0.00  0.00
  WS02001212WS02001213    1.00   0.01  0.00  0.00  0.55  0.00  0.44  0.00  0.00  0.00
  WS02001211WS02001212    1.00   0.00  0.01  0.00  0.99  0.00  0.00  0.00  0.00  0.00
  WS02003072WS02003073    1.00   0.00  0.00  0.00  0.00  0.00  0.00  1.00  0.00  0.00
  WS02003069WS02003072    1.00   0.00  0.00  0.00  0.99  0.01  0.00  0.00  0.57  0.00
  WS02003060WS02003069    1.00   0.00  0.00  0.00  0.96  0.04  0.00  0.00  0.06  0.00
  WS02003059WS02003060    1.00   0.00  0.00  0.00  0.99  0.01  0.00  0.00  0.01  0.00
  HS02004901HS02004770    1.00   0.05  0.00  0.00  0.95  0.00  0.00  0.00  0.02  0.00
  HS02004876HS02004881    1.00   0.02  0.00  0.00  0.98  0.00  0.00  0.00  0.00  0.00
  HS02004870HS02004876    1.00   0.01  0.00  0.00  0.99  0.00  0.00  0.00  0.95  0.00
  HS02004842HS02004848    1.00   0.00  0.05  0.00  0.95  0.00  0.00  0.00  0.69  0.00
  HS02004837HS02004842    1.00   0.00  0.00  0.00  0.99  0.01  0.00  0.00  0.11  0.00
  HS02004830HS02004837    1.00   0.00  0.00  0.00  1.00  0.00  0.00  0.00  0.99  0.00
  HS02004824HS02004830    1.00   0.00  0.00  0.00  1.00  0.00  0.00  0.00  0.00  0.00
  HS02004817HS02004824    1.00   0.00  0.00  0.00  1.00  0.00  0.00  0.00  1.00  0.00
  HS02004770HS02004777    1.00   0.00  0.05  0.00  0.95  0.00  0.00  0.00  0.07  0.00
  HS02004799HS02004480    1.00   0.01  0.02  0.00  0.93  0.00  0.04  0.00  0.00  0.00
  HS02004792HS02004799    1.00   0.00  0.00  0.00  0.98  0.02  0.00  0.00  0.98  0.00
  HS02004788HS02004792    1.00   0.00  0.00  0.00  0.98  0.02  0.00  0.00  0.98  0.00
  HS02004785HS02004788    1.00   0.00  0.00  0.00  1.00  0.00  0.00  0.00  0.00  0.00
  HS02004777HS02004785    1.00   0.00  0.00  0.00  1.00  0.00  0.00  0.00  0.20  0.00
  HS02004480HS02004478    1.00   0.05  0.00  0.00  0.68  0.00  0.00  0.27  0.00  0.00
  HS02004479HS02004480    1.00   0.03  0.00  0.00  0.97  0.00  0.00  0.00  0.16  0.00
  HS02004862HS02004870    1.00   0.00  0.00  0.00  1.00  0.00  0.00  0.00  0.06  0.00
  HS02004848HS02004852    1.00   0.05  0.00  0.00  0.95  0.00  0.00  0.00  0.71  0.00
  HS02004856HS02004862    1.00   0.00  0.08  0.00  0.92  0.00  0.00  0.00  0.74  0.00
  HS02004852HS02004856    1.00   0.05  0.01  0.00  0.94  0.00  0.00  0.00  0.83  0.00
  HS02004802HS02004478    1.00   0.05  0.01  0.00  0.94  0.00  0.00  0.00  0.01  0.00
  HS02004478WS02006287    1.00   0.06  0.00  0.00  0.84  0.10  0.00  0.00  0.77  0.00
  HS02004817HS02004807    1.00   0.00  0.05  0.00  0.95  0.00  0.00  0.00  0.00  0.00
  HS02004807HS02004802    1.00   0.05  0.00  0.00  0.95  0.00  0.00  0.00  0.01  0.00
  YS02001759YS02001757    1.00   0.00  0.00  0.00  1.00  0.00  0.00  0.00  0.17  0.00
  YS02001762YS02001759    1.00   0.00  0.00  0.00  1.00  0.00  0.00  0.00  0.04  0.00
  YS02001765YS02001762    1.00   0.00  0.00  0.00  1.00  0.00  0.00  0.00  0.22  0.00
  YS02001770YS02001767    1.00   0.00  0.00  0.00  1.00  0.00  0.00  0.00  0.00  0.00
  YS02001774YS02001770    1.00   0.00  0.06  0.00  0.94  0.00  0.00  0.00  0.07  0.00
  YS02001779YS02001774    1.00   0.00  0.00  0.00  1.00  0.00  0.00  0.00  0.26  0.00
  YS02001649YS02001757    1.00   0.00  0.00  0.00  1.00  0.00  0.00  0.00  0.19  0.00
  YS02001767YS02001765    1.00   0.00  0.00  0.00  1.00  0.00  0.00  0.00  0.01  0.00
  YS02006561YS02001783    1.00   0.08  0.00  0.00  0.13  0.79  0.00  0.00  0.73  0.00
  YS02001783YS02001784    1.00   0.00  0.08  0.00  0.92  0.00  0.00  0.00  0.00  0.00
  YS02001784YS02001785    1.00   0.00  0.00  0.00  1.00  0.00  0.00  0.00  0.25  0.00
  YS02001788YS02001790    1.00   0.00  0.00  0.00  0.28  0.72  0.00  0.00  0.78  0.00
  YS02001790YS02001791    1.00   0.00  0.00  0.00  0.23  0.77  0.00  0.00  0.42  0.00
  YS02001791YS02001793    1.00   0.00  0.00  0.00  0.25  0.75  0.00  0.00  0.02  0.00
  YS02001910YS02001907    1.00   0.00  0.00  0.00  0.97  0.00  0.00  0.02  0.13  0.00
  YS02001786YS02001788    1.00   0.00  0.00  0.00  0.25  0.75  0.00  0.00  0.00  0.00
  YS02001915YS02001910    1.00   0.00  0.00  0.00  1.00  0.00  0.00  0.00  0.24  0.00
  YS02001918YS02001915    1.00   0.00  0.01  0.00  0.98  0.01  0.00  0.00  0.82  0.00
  YS02001923YS02001920    1.00   0.00  0.00  0.00  1.00  0.00  0.00  0.00  1.00  0.00
  YS02001926YS02001923    1.00   0.00  0.04  0.00  0.00  0.00  0.96  0.00  0.00  0.00
  YS02001929YS02001926    1.00   0.00  0.05  0.00  0.95  0.00  0.00  0.00  0.87  0.00
  YS02001920YS02001918    1.00   0.00  0.01  0.00  0.99  0.00  0.00  0.00  0.00  0.00
  YS02001629YS02163301    1.00   0.07  0.00  0.00  0.93  0.00  0.00  0.00  0.00  0.00
  YS02001619YS02001622    1.00   0.05  0.00  0.00  0.95  0.00  0.00  0.00  0.00  0.00
  YS02001622YS02001625    1.00   0.05  0.00  0.00  0.95  0.00  0.00  0.00  0.13  0.00
  YS02001625YS02001629    1.00   0.05  0.03  0.00  0.89  0.00  0.02  0.00  0.00  0.00
  YS02163301YS02001633    1.00   0.00  0.07  0.00  0.93  0.00  0.00  0.00  0.00  0.00
  YS02163601YS02164001    1.00   0.00  0.04  0.00  0.96  0.00  0.00  0.00  0.00  0.00
  YS02164001YS02001641    1.00   0.02  0.02  0.00  0.96  0.00  0.00  0.00  0.07  0.00
  YS02001641YS02001644    1.00   0.00  0.01  0.00  0.99  0.00  0.00  0.00  0.00  0.00
  YS02001647YS02001649    1.00   0.00  0.08  0.00  0.92  0.00  0.00  0.00  0.01  0.00
  YS02006553YS02006556    1.00   0.02  0.00  0.00  0.98  0.00  0.00  0.00  0.03  0.00
  YS02006556YS02006558    1.00   0.00  0.01  0.00  0.99  0.00  0.00  0.00  0.00  0.00
  YSB6556YSB1171          1.00   0.03  0.02  0.00  0.95  0.00  0.00  0.00  0.00  0.00
  YS02001907YS02006553    1.00   0.01  0.02  0.00  0.98  0.00  0.00  0.00  0.00  0.00
  YS02006558YS02006561    1.00   0.08  0.00  0.00  0.00  0.92  0.00  0.00  0.70  0.00
  YS02001633YS02163601    1.00   0.00  0.01  0.00  0.99  0.00  0.00  0.00  0.19  0.00
  YS02001644YS02001647    1.00   0.00  0.08  0.00  0.92  0.00  0.00  0.00  0.00  0.00
  YS02001745YS02001748    1.00   0.00  0.00  0.00  0.83  0.02  0.00  0.15  0.25  0.00
  YS02001748YS02001751    1.00   0.00  0.00  0.00  0.96  0.04  0.00  0.00  0.24  0.00
  YS02001751YS02001754    1.00   0.00  0.00  0.00  0.91  0.00  0.00  0.09  0.02  0.00
  YS02001754YS02001757    1.00   0.00  0.00  0.00  0.99  0.01  0.00  0.00  0.26  0.00
  YS02001882YS02001884    1.00   0.07  0.00  0.00  0.93  0.00  0.00  0.00  0.00  0.00
  YS02001884YS02001887    1.00   0.03  0.01  0.00  0.95  0.00  0.00  0.00  0.00  0.00
  YS02001890YS02001895    1.00   0.01  0.07  0.00  0.93  0.00  0.00  0.00  0.00  0.00
  YS02001895YS02001898    1.00   0.07  0.00  0.00  0.92  0.00  0.01  0.00  0.00  0.00
  YS02001898YS02001901    1.00   0.07  0.00  0.00  0.92  0.00  0.00  0.00  0.02  0.00
  YS02001901YS02001904    1.00   0.07  0.00  0.00  0.93  0.00  0.00  0.00  0.00  0.00
  YS02001904YS02001907    1.00   0.01  0.06  0.00  0.93  0.00  0.00  0.00  0.00  0.00
  YS02001887YS02001890    1.00   0.00  0.00  0.00  0.97  0.00  0.02  0.00  0.00  0.00
  YS02001652YS02001649    1.00   0.00  0.00  0.00  1.00  0.00  0.00  0.00  0.25  0.00
  YS02001655YS02001652    1.00   0.00  0.00  0.00  0.91  0.00  0.00  0.09  0.02  0.00
  YS02001658YS02001655    1.00   0.00  0.06  0.00  0.90  0.04  0.00  0.00  0.11  0.00
  YS02001661YS02001658    1.00   0.06  0.00  0.00  0.83  0.11  0.00  0.00  0.27  0.00
  YS02001664YS02001661    1.00   0.05  0.00  0.00  0.69  0.26  0.00  0.00  0.67  0.00
  YSB1154YSB6556          1.00   0.05  0.00  0.00  0.95  0.00  0.00  0.00  0.02  0.00
  YSB1174YSB1171          1.00   0.03  0.01  0.00  0.96  0.00  0.00  0.00  0.00  0.00
  YSB1171HS02004479       1.00   0.03  0.00  0.00  0.97  0.00  0.00  0.00  0.13  0.00
  HS02004881HS02006253    1.00   0.03  0.00  0.00  0.49  0.01  0.00  0.47  0.30  0.00
  YS02001793JiankangQianchi    1.00   0.00  0.00  0.00  0.41  0.58  0.00  0.00  0.09  0.00
  YS02001757CaochengTiaoxuchi    1.00   0.00  0.10  0.00  0.90  0.00  0.00  0.00  0.00  0.00
  WSF200WS02003060        1.00   0.00  0.09  0.00  0.73  0.18  0.00  0.00  0.36  0.00
  1                       1.00   0.00  0.00  0.00  0.00  1.00  0.00  0.00  0.20  0.00
  2                       1.00   1.00  0.00  0.00  0.00  0.00  0.00  0.00  0.00  0.00
  3                       1.00   0.15  0.00  0.00  0.00  0.85  0.00  0.00  0.00  0.00
  4                       1.00   1.00  0.00  0.00  0.00  0.00  0.00  0.00  0.00  0.00
  
  
  *************************
  Conduit Surcharge Summary
  *************************
  
  ----------------------------------------------------------------------------
                                                           Hours        Hours 
                         --------- Hours Full --------   Above Full   Capacity
  Conduit                Both Ends  Upstream  Dnstream   Normal Flow   Limited
  ----------------------------------------------------------------------------
  WS02006229WS02006228        0.63      0.72      0.63      2.41         0.63
  WS02006256WS02006235        5.66      5.66      7.83      5.34         0.01
  WS02006249WS02006248        0.01      0.01      0.01      2.21         0.01
  WS02006247WS02006245        0.01      0.01      0.01      2.39         0.01
  WS02006242WS02006240        0.01      0.01      0.01      0.01         0.01
  WS02006238WS02006235        0.01      0.01      0.06      0.01         0.01
  WS02006235WS02006234        0.01      0.01      0.01      5.69         0.01
  WS02006234WS02006232        0.01      0.01      0.20      0.01         0.01
  WS02006232WS02006231        0.01      0.01      0.20      0.01         0.01
  WS02006231WS02006230        0.01      0.01      0.01      5.65         0.01
  WS02006230WS02006229        1.40      2.22      1.40      5.71         1.40
  WS02006228WS02006109        0.67      0.98      0.67      2.73         0.67
  WS02006112WS02006115        0.01      0.01      0.08      0.01         0.01
  WS02006111WS02006112        0.01      0.01      2.42      0.01         0.01
  WS02006110WS02006113        0.01      0.01      0.82      0.01         0.01
  WS02006109WS02006110        0.01      0.01      0.98      0.01         0.01
  WS02004404WS02004405        0.01      0.01      0.01      5.63         0.01
  WS02003072WS02003073        0.01      0.01      0.01      2.57         0.01
  YS02001759YS02001757        5.22      5.22      5.36      0.01         0.01
  YS02001762YS02001759        5.15      5.15      5.22      0.01         0.01
  YS02001765YS02001762        4.99      4.99      5.15      0.01         0.01
  YS02001770YS02001767        4.25      4.26      4.34      0.01         0.52
  YS02001774YS02001770        4.04      4.04      5.11      0.01         0.01
  YS02001779YS02001774        3.04      3.04      5.11      0.01         0.01
  YS02001649YS02001757        5.17      5.17      5.36      0.01         0.01
  YS02001767YS02001765        4.34      4.34      4.99      0.01         0.01
  YS02001788YS02001790        0.01      0.01      0.63      0.01         0.01
  YS02001790YS02001791        0.63      0.63      0.77      0.01         0.01
  YS02001791YS02001793        0.77      0.77      1.05      0.01         0.01
  YS02001629YS02163301        3.90      3.90      4.13      0.01         0.01
  YS02001619YS02001622        1.73      1.73      1.85      0.01         0.01
  YS02001622YS02001625        1.85      1.85      3.40      0.01         0.01
  YS02001625YS02001629        1.73      1.73      3.40      0.01         0.01
  YS02163301YS02001633        4.13      4.13      5.03      0.01         0.01
  YS02163601YS02164001        5.01      5.01      5.17      0.01         0.01
  YS02164001YS02001641        5.01      5.01      5.08      0.01         0.01
  YS02001641YS02001644        5.08      5.08      5.08      0.01         0.45
  YS02001647YS02001649        3.37      3.37      5.17      0.01         0.01
  YS02001633YS02163601        4.80      4.80      5.17      0.01         0.01
  YS02001644YS02001647        3.37      3.37      5.08      0.01         0.01
  YS02001745YS02001748        0.01      0.01      0.24      0.01         0.01
  YS02001748YS02001751        0.85      0.85      1.98      0.01         0.01
  YS02001751YS02001754        1.98      1.98      3.17      0.01         0.01
  YS02001754YS02001757        3.40      3.40      5.36      0.01         0.01
  YS02001652YS02001649        3.45      3.45      5.17      0.01         0.01
  YS02001655YS02001652        2.11      2.11      3.29      0.01         0.01
  YS02001658YS02001655        0.36      0.36      2.11      0.01         0.01
  YS02001661YS02001658        0.01      0.01      0.36      0.01         0.01
  YS02001793JiankangQianchi        0.98      0.98      1.82      0.01         0.01
  YS02001757CaochengTiaoxuchi        1.32      1.32      5.36      0.01         0.01
  3                           0.01      0.01      0.01      0.01         0.01
  
  
  ***************
  Pumping Summary
  ***************
  
  ---------------------------------------------------------------------------------------------------------
                                                  Min       Avg       Max     Total     Power    % Time Off
                        Percent   Number of      Flow      Flow      Flow    Volume     Usage    Pump Curve
  Pump                 Utilized   Start-Ups       LPS       LPS       LPS  10^6 ltr     Kw-hr    Low   High
  ---------------------------------------------------------------------------------------------------------
  CC-Pump-1               34.82           2      0.00    179.71    200.00     1.754      5.77    0.0   34.0
  CC-Pump-2                0.00           0      0.00      0.00      0.00     0.000      0.00    0.0    0.0
  JK-Pump-1               78.72           3      0.00    106.08    300.00     1.520     26.48    0.0    0.0
  JK-Pump-2               93.62           3      0.00    170.87    300.00     2.946     39.17    0.0    0.0
  XR-Pump-1               25.53           2      0.00     80.04     95.00     0.570      6.74    0.0    0.0
  XR-Pump-2               40.42           3      0.00     74.30     95.00     0.941     15.34    0.0    0.0
  XR-Pump-3               91.48           4      0.00     86.28     95.00     2.280     24.45    0.0    0.0
  XR-Pump-4               95.74           3      0.00     86.92     95.00     2.394     26.25    0.0    0.0
  

  Analysis begun on:  Tue Dec 21 17:18:24 2021
  Analysis ended on:  Tue Dec 21 17:18:26 2021
  Total elapsed time: 00:00:02