
  EPA STORM WATER MANAGEMENT MODEL - VERSION 5.1 (Build 5.3.0.dev0)
  --------------------------------------------------------------

  WARNING 04: minimum elevation drop used for Conduit WS02004404WS02004405
  WARNING 03: negative offset ignored for Link YS02001904YS02001907
  
  *********************************************************
  NOTE: The summary statistics displayed in this report are
  based on results found at every computational time step,  
  not just on results from each reporting time step.
  *********************************************************
  
  ****************
  Analysis Options
  ****************
  Flow Units ............... LPS
  Process Models:
    Rainfall/Runoff ........ YES
    RDII ................... NO
    Snowmelt ............... NO
    Groundwater ............ NO
    Flow Routing ........... YES
    Ponding Allowed ........ NO
    Water Quality .......... NO
  Infiltration Method ...... HORTON
  Flow Routing Method ...... DYNWAVE
  Surcharge Method ......... EXTRAN
  Starting Date ............ 08/28/2015 08:00:00
  Ending Date .............. 08/28/2015 15:50:00
  Antecedent Dry Days ...... 8.0
  Report Time Step ......... 00:01:00
  Wet Time Step ............ 00:01:00
  Dry Time Step ............ 00:01:00
  Routing Time Step ........ 5.00 sec
  Variable Time Step ....... YES
  Maximum Trials ........... 8
  Number of Threads ........ 4
  Head Tolerance ........... 0.001500 m
  
  
  **************************        Volume         Depth
  Runoff Quantity Continuity     hectare-m            mm
  **************************     ---------       -------
  Total Precipitation ......         2.455         5.375
  Evaporation Loss .........         0.000         0.000
  Infiltration Loss ........         0.614         1.344
  Surface Runoff ...........         0.980         2.145
  Final Storage ............         0.862         1.887
  Continuity Error (%) .....        -0.018
  
  
  **************************        Volume        Volume
  Flow Routing Continuity        hectare-m      10^6 ltr
  **************************     ---------     ---------
  Dry Weather Inflow .......         0.616         6.165
  Wet Weather Inflow .......         0.979         9.791
  Groundwater Inflow .......         0.000         0.000
  RDII Inflow ..............         0.000         0.000
  External Inflow ..........         0.102         1.024
  External Outflow .........         1.292        12.924
  Flooding Loss ............         0.068         0.676
  Evaporation Loss .........         0.000         0.000
  Exfiltration Loss ........         0.000         0.000
  Initial Stored Volume ....         0.076         0.761
  Final Stored Volume ......         0.531         5.313
  Continuity Error (%) .....        -6.612
  
  
  *************************
  Highest Continuity Errors
  *************************
  Node JK-storage (-39.57%)
  Node HS02004842 (30.51%)
  Node YS02001884 (24.93%)
  Node YS02001774 (15.61%)
  Node YSB1171 (7.78%)
  
  
  ***************************
  Time-Step Critical Elements
  ***************************
  Link 3 (45.32%)
  Link WS02006252WS02006251 (42.26%)
  Link YS02001793JiankangQianchi (4.28%)
  Link WS02006280WS02006229 (2.52%)
  
  
  ********************************
  Highest Flow Instability Indexes
  ********************************
  Link WS02006113WS02006111 (56)
  Link WS02006111WS02006112 (21)
  Link YS02164001YS02001641 (8)
  Link YS02001641YS02001644 (8)
  Link YS02001629YS02163301 (8)
  
  
  *************************
  Routing Time Step Summary
  *************************
  Minimum Time Step           :     0.50 sec
  Average Time Step           :     1.19 sec
  Maximum Time Step           :     5.00 sec
  Percent in Steady State     :    -0.00
  Average Iterations per Step :     2.56
  Percent Not Converging      :     6.04
  
  
  ***************************
  Subcatchment Runoff Summary
  ***************************
  
  ------------------------------------------------------------------------------------------------------------------------------
                            Total      Total      Total      Total     Imperv       Perv      Total       Total     Peak  Runoff
                           Precip      Runon       Evap      Infil     Runoff     Runoff     Runoff      Runoff   Runoff   Coeff
  Subcatchment                 mm         mm         mm         mm         mm         mm         mm    10^6 ltr      LPS
  ------------------------------------------------------------------------------------------------------------------------------
  sub0                       5.37       0.00       0.00       0.38       3.73       0.00       3.73        0.00     1.27   0.695
  sub1                       5.37       0.00       0.00       0.59       3.53       0.00       3.53        0.02     6.53   0.657
  sub2                       5.37       0.00       0.00       1.99       2.48       0.00       2.48        0.02     5.75   0.462
  sub3                       5.37       0.00       0.00       1.99       2.45       0.00       2.45        0.06    11.75   0.455
  sub4                       5.37       0.00       0.00       0.59       3.39       0.00       3.39        0.07    13.11   0.632
  sub5                       5.37       0.00       0.00       0.38       3.69       0.00       3.69        0.04    11.61   0.686
  sub7                       5.37       0.00       0.00       0.48       3.64       0.00       3.64        0.01     4.14   0.677
  sub8                       5.37       0.00       0.00       0.48       3.63       0.00       3.63        0.02     7.27   0.675
  sub9                       5.37       0.00       0.00       0.48       3.63       0.00       3.63        0.02     5.38   0.675
  sub10                      5.37       0.00       0.00       0.43       3.65       0.00       3.65        0.04    11.61   0.680
  sub11                      5.37       0.00       0.00       0.43       3.67       0.00       3.67        0.04    13.69   0.683
  sub12                      5.37       0.00       0.00       0.70       3.49       0.00       3.49        0.03    11.71   0.649
  sub14                      5.37       0.00       0.00       0.48       3.62       0.00       3.62        0.03    10.51   0.674
  sub15                      5.37       0.00       0.00       1.61       2.78       0.00       2.78        0.05    14.25   0.518
  sub16                      5.37       0.00       0.00       1.77       2.68       0.00       2.68        0.03    10.26   0.499
  sub17                      5.37       0.00       0.00       1.72       2.72       0.00       2.72        0.02     8.28   0.506
  sub22                      5.37       0.00       0.00       2.31       2.28       0.00       2.28        0.14    46.88   0.423
  sub23                      5.37       0.00       0.00       1.99       2.52       0.00       2.52        0.12    39.98   0.468
  sub60                      5.37       0.00       0.00       0.64       2.37       0.00       2.37        0.72    64.64   0.442
  sub61                      5.37       0.00       0.00       0.91       2.56       0.00       2.56        0.79    81.69   0.477
  sub62                      5.37       0.00       0.00       0.43       2.74       0.00       2.74        0.84    83.30   0.510
  sub63                      5.37       0.00       0.00       1.56       2.29       0.00       2.29        0.69    76.49   0.426
  sub64                      5.37       0.00       0.00       0.81       2.27       0.00       2.27        0.69    61.36   0.422
  sub65                      5.37       0.00       0.00       0.70       2.29       0.00       2.29        0.71    62.22   0.427
  sub66                      5.37       0.00       0.00       1.56       1.98       0.00       1.98        0.61    56.37   0.369
  sub67                      5.37       0.00       0.00       0.43       3.04       0.00       3.04        0.94   107.71   0.565
  sub68                      5.37       0.00       0.00       0.75       2.73       0.00       2.73        0.84    90.50   0.508
  sub69                      5.37       0.00       0.00       0.81       2.97       0.00       2.97        0.69    90.66   0.553
  sub70                      5.37       3.03       0.00       2.86       3.59       0.00       3.59        0.82    70.94   0.427
  sub71                      5.37       0.00       0.00       0.43       2.61       0.00       2.61        0.62    57.99   0.486
  sub72                      5.37       0.00       0.00       0.38       1.81       0.00       1.81        0.37    26.99   0.337
  sub73                      5.37       3.49       0.00       3.01       3.60       0.00       3.60        0.85    60.66   0.406
  sub74                      5.37       0.00       0.00       4.03       0.90       0.00       0.90        0.36    50.75   0.167
  
  
  ******************
  Node Depth Summary
  ******************
  
  ---------------------------------------------------------------------------------
                                 Average  Maximum  Maximum  Time of Max    Reported
                                   Depth    Depth      HGL   Occurrence   Max Depth
  Node                 Type       Meters   Meters   Meters  days hr:min      Meters
  ---------------------------------------------------------------------------------
  WS02001211           JUNCTION     0.61     0.71     5.54     0  03:21        0.71
  WS02001212           JUNCTION     0.34     0.43     5.49     0  03:20        0.43
  WS02001213           JUNCTION     0.56     0.67     5.43     0  03:19        0.67
  WS02003069           JUNCTION     0.38     0.49     5.08     0  03:18        0.49
  WS02003072           JUNCTION     0.45     0.56     4.93     0  03:19        0.56
  WS02003073           JUNCTION     0.26     0.34     4.40     0  03:20        0.34
  WS02003060           JUNCTION     0.34     0.44     5.37     0  03:17        0.44
  WS02003066           JUNCTION     0.20     0.28     5.83     0  02:42        0.28
  WS02003059           JUNCTION     0.62     0.73     5.41     0  03:19        0.73
  WS02003067           JUNCTION     0.51     0.67     5.99     0  02:42        0.67
  WS02004401           JUNCTION     0.60     0.79     6.79     0  02:39        0.79
  WS02004402           JUNCTION     0.63     0.82     6.78     0  02:39        0.82
  WS02004403           JUNCTION     0.65     0.84     6.77     0  02:39        0.84
  WS02004404           JUNCTION     0.73     0.91     6.76     0  02:39        0.91
  WS02004406           JUNCTION     0.74     0.91     6.74     0  02:39        0.91
  WS02004409           JUNCTION     0.42     0.61     6.38     0  02:41        0.61
  WS02004410           JUNCTION     0.44     0.63     6.35     0  02:41        0.63
  WS02004411           JUNCTION     0.45     0.64     6.32     0  02:41        0.64
  WS02004412           JUNCTION     0.47     0.65     6.29     0  02:42        0.65
  WS02004413           JUNCTION     0.63     0.81     6.28     0  02:42        0.81
  WS02004405           JUNCTION     0.73     0.91     6.76     0  02:39        0.91
  WS02006109           JUNCTION     0.66     0.89     7.50     0  02:35        0.88
  WS02006110           JUNCTION     0.67     0.86     7.45     0  02:35        0.86
  WS02006111           JUNCTION     0.19     0.27     6.97     0  02:35        0.26
  WS02006112           JUNCTION     0.76     0.97     6.86     0  02:38        0.97
  WS02006113           JUNCTION     0.29     0.42     7.31     0  02:35        0.42
  WS02006115           JUNCTION     0.49     0.69     6.82     0  02:38        0.69
  WS02006116           JUNCTION     0.57     0.77     6.81     0  02:38        0.77
  WS02006230           JUNCTION     0.60     0.89     7.64     0  02:35        0.89
  WS02006231           JUNCTION     0.39     0.57     7.69     0  02:35        0.57
  WS02006232           JUNCTION     0.52     0.70     7.74     0  02:36        0.70
  WS02006234           JUNCTION     0.42     0.62     7.77     0  02:36        0.62
  WS02006235           JUNCTION     0.45     0.64     7.80     0  02:36        0.64
  WS02006238           JUNCTION     0.47     0.67     7.81     0  02:36        0.67
  WS02006240           JUNCTION     0.35     0.56     7.85     0  02:36        0.56
  WS02006242           JUNCTION     0.39     0.61     7.88     0  02:37        0.61
  WS02006243           JUNCTION     0.26     0.48     7.90     0  02:37        0.48
  WS02006245           JUNCTION     0.22     0.46     7.94     0  02:38        0.46
  WS02006247           JUNCTION     0.24     0.47     7.97     0  02:38        0.47
  WS02006248           JUNCTION     0.20     0.41     8.00     0  02:38        0.41
  WS02006249           JUNCTION     0.23     0.45     8.04     0  02:38        0.45
  WS02006239           JUNCTION     0.42     0.62     7.83     0  02:36        0.62
  WS02006251           JUNCTION     0.21     0.43     8.10     0  02:38        0.43
  WS02006252           JUNCTION     0.19     0.35     8.59     0  04:20        0.35
  WS02006253           JUNCTION     0.24     0.46     8.10     0  02:38        0.46
  WS02006256           JUNCTION     1.01     2.35     9.28     0  00:00        1.20
  WS02004138           JUNCTION     0.14     0.17     7.42     0  00:00        0.17
  WS02004407           JUNCTION     0.19     0.27     6.59     0  02:40        0.27
  WS02006228           JUNCTION     0.65     0.90     7.56     0  02:35        0.90
  WS02006229           JUNCTION     0.62     0.89     7.59     0  02:35        0.89
  WS02006280           JUNCTION     0.06     0.14     8.41     0  02:19        0.14
  WS02006284           JUNCTION     0.35     0.47     8.87     0  02:19        0.47
  WS02006287           JUNCTION     0.08     0.20     9.15     0  02:19        0.20
  WSF200               JUNCTION     0.18     0.28     5.51     0  02:41        0.28
  HS02004901           JUNCTION     0.11     0.22    10.04     0  02:17        0.22
  HS02004881           JUNCTION     0.01     0.02     9.05     0  02:18        0.02
  HS02004876           JUNCTION     0.04     0.10     9.13     0  02:17        0.10
  HS02004870           JUNCTION     0.01     0.04     9.32     0  02:19        0.04
  HS02004862           JUNCTION     0.01     0.04     9.43     0  02:20        0.04
  HS02004856           JUNCTION     0.07     0.10     9.53     0  02:19        0.10
  HS02004852           JUNCTION     0.01     0.02     9.54     0  02:20        0.02
  HS02004848           JUNCTION     0.01     0.02     9.63     0  02:18        0.02
  HS02004842           JUNCTION     0.33     0.36     9.63     0  02:18        0.36
  HS02004837           JUNCTION     0.03     0.05     9.63     0  02:18        0.05
  HS02004830           JUNCTION     0.04     0.06     9.53     0  02:18        0.06
  HS02004824           JUNCTION     0.02     0.04     9.44     0  02:22        0.04
  HS02004817           JUNCTION     0.42     0.51     9.36     0  02:19        0.51
  HS02004807           JUNCTION     0.11     0.19     9.36     0  02:19        0.19
  HS02004802           JUNCTION     0.15     0.23     9.36     0  02:19        0.23
  HS02004799           JUNCTION     0.10     0.24     9.45     0  02:17        0.24
  HS02004792           JUNCTION     0.02     0.09     9.61     0  02:16        0.09
  HS02004788           JUNCTION     0.02     0.07     9.97     0  02:18        0.07
  HS02004785           JUNCTION     0.04     0.13    10.03     0  02:17        0.13
  HS02004777           JUNCTION     0.13     0.24    10.04     0  02:17        0.24
  HS02004770           JUNCTION     0.10     0.21    10.04     0  02:17        0.21
  HS02004480           JUNCTION     0.07     0.19     9.43     0  02:17        0.19
  HS02004479           JUNCTION     0.10     0.22     9.43     0  02:18        0.22
  HS02004478           JUNCTION     0.05     0.12     9.34     0  02:18        0.12
  YS02001745           JUNCTION     0.13     0.49     8.01     0  07:50        0.49
  YS02001748           JUNCTION     0.40     0.93     8.01     0  07:50        0.93
  YS02001751           JUNCTION     0.58     1.13     8.01     0  07:50        1.13
  YS02001754           JUNCTION     0.82     1.40     8.01     0  07:50        1.40
  YS02001762           JUNCTION     1.01     1.61     8.01     0  07:50        1.61
  YS02001765           JUNCTION     0.97     1.56     8.01     0  07:50        1.56
  YS02001767           JUNCTION     0.93     1.52     8.01     0  07:48        1.52
  YS02001770           JUNCTION     0.93     1.51     8.01     0  07:48        1.51
  YS02001774           JUNCTION     0.99     1.59     8.01     0  07:48        1.59
  YS02001779           JUNCTION     0.75     1.32     8.01     0  07:48        1.32
  YS02001882           JUNCTION     0.28     0.42     7.13     0  02:54        0.42
  YS02001884           JUNCTION     0.38     0.52     7.13     0  02:53        0.52
  YS02001759           JUNCTION     1.05     1.64     8.01     0  07:50        1.64
  YS02001887           JUNCTION     0.45     0.60     7.13     0  02:53        0.60
  YS02001890           JUNCTION     0.48     0.63     7.13     0  02:54        0.63
  YS02001898           JUNCTION     0.25     0.38     7.12     0  02:54        0.38
  YS02001901           JUNCTION     0.37     0.51     7.12     0  02:55        0.51
  YS02001904           JUNCTION     0.35     0.48     7.11     0  02:55        0.48
  YS02001907           JUNCTION     0.67     0.83     7.12     0  02:54        0.83
  YS02001910           JUNCTION     0.47     0.61     7.12     0  02:54        0.61
  YS02001915           JUNCTION     0.27     0.40     7.12     0  02:54        0.40
  YS02001918           JUNCTION     0.07     0.09     7.16     0  03:03        0.09
  YS02001619           JUNCTION     0.54     1.08     8.01     0  07:49        1.08
  YS02001629           JUNCTION     0.88     1.46     8.01     0  07:50        1.46
  YS02001641           JUNCTION     0.98     1.57     8.01     0  07:50        1.57
  YS02001644           JUNCTION     0.99     1.58     8.01     0  07:50        1.58
  YS02001652           JUNCTION     0.83     1.41     8.01     0  07:50        1.41
  YS02001655           JUNCTION     0.60     1.16     8.01     0  07:50        1.16
  YS02001920           JUNCTION     0.17     0.19     7.20     0  03:02        0.19
  YS02001923           JUNCTION     0.06     0.08     7.34     0  03:02        0.08
  YS02001926           JUNCTION     0.13     0.16     7.61     0  03:01        0.16
  YS02001929           JUNCTION     0.06     0.08     7.77     0  03:01        0.08
  YS02001658           JUNCTION     0.35     0.87     8.01     0  07:50        0.87
  YS02001661           JUNCTION     0.21     0.60     8.01     0  07:49        0.60
  YS02001664           JUNCTION     0.07     0.11     8.03     0  02:45        0.11
  YS02001622           JUNCTION     0.56     1.10     8.01     0  07:49        1.10
  YS02001633           JUNCTION     0.97     1.55     8.01     0  07:50        1.55
  YS02001649           JUNCTION     1.02     1.62     8.01     0  07:50        1.62
  YS02001757           JUNCTION     1.15     1.75     8.01     0  07:50        1.75
  YS02001895           JUNCTION     0.25     0.38     7.13     0  02:54        0.38
  YS02001625           JUNCTION     0.83     1.40     8.01     0  07:49        1.40
  YS02163301           JUNCTION     0.91     1.49     8.01     0  07:50        1.49
  YS02163601           JUNCTION     1.02     1.61     8.01     0  07:50        1.61
  YS02164001           JUNCTION     0.96     1.55     8.01     0  07:50        1.55
  YS02001647           JUNCTION     0.82     1.40     8.01     0  07:50        1.40
  YSB1154              JUNCTION     0.24     0.37     9.43     0  02:18        0.37
  YSB6556              JUNCTION     0.14     0.26     9.43     0  02:17        0.26
  YSB1174              JUNCTION     0.19     0.32     9.43     0  02:18        0.32
  YSB1171              JUNCTION     0.39     0.52     9.43     0  02:17        0.52
  YS02006553           JUNCTION     0.68     0.83     7.11     0  02:54        0.83
  YS02006561           JUNCTION     0.14     0.21     6.87     0  02:55        0.21
  YS02006556           JUNCTION     0.65     0.80     7.11     0  02:55        0.80
  YS02006558           JUNCTION     0.70     0.84     7.11     0  02:55        0.84
  YS02001783           JUNCTION     0.24     0.37     6.51     0  02:55        0.37
  YS02001784           JUNCTION     0.27     0.40     6.47     0  02:55        0.40
  YS02001786           JUNCTION     0.23     0.34     6.37     0  02:55        0.34
  YS02001788           JUNCTION     0.17     0.25     6.23     0  03:00        0.25
  YS02001790           JUNCTION     0.20     0.32     5.97     0  03:01        0.32
  YS02001791           JUNCTION     0.14     0.48     5.95     0  03:01        0.46
  YS02001793           JUNCTION     0.17     1.37     6.20     0  03:01        1.04
  WS02004139           JUNCTION     0.55     0.65     5.56     0  03:21        0.65
  WSC                  OUTFALL      0.26     0.34     1.01     0  03:20        0.34
  3                    OUTFALL      0.07     0.23     6.23     0  00:00        0.19
  4                    OUTFALL      0.00     0.00     7.00     0  00:00        0.00
  5                    OUTFALL      0.00     0.00     5.00     0  00:00        0.00
  JK-storage           STORAGE      1.08     5.09     5.89     0  03:00        5.07
  CC-storage           STORAGE      0.40     1.01     8.01     0  07:50        1.01
  XR-storage           STORAGE      5.67     7.72     5.72     0  04:35        7.72
  
  
  *******************
  Node Inflow Summary
  *******************
  
  -------------------------------------------------------------------------------------------------
                                  Maximum  Maximum                  Lateral       Total        Flow
                                  Lateral    Total  Time of Max      Inflow      Inflow     Balance
                                   Inflow   Inflow   Occurrence      Volume      Volume       Error
  Node                 Type           LPS      LPS  days hr:min    10^6 ltr    10^6 ltr     Percent
  -------------------------------------------------------------------------------------------------
  WS02001211           JUNCTION      7.35   292.84     0  03:28       0.207        6.02       0.483
  WS02001212           JUNCTION      0.00   293.05     0  03:29           0        5.99       0.262
  WS02001213           JUNCTION      0.00   293.24     0  03:29           0        5.98       0.322
  WS02003069           JUNCTION      0.32   706.88     0  03:18     0.00902        11.2       0.177
  WS02003072           JUNCTION      0.00   706.87     0  03:19           0        11.2       0.236
  WS02003073           JUNCTION      1.82   708.69     0  03:19      0.0514        11.2       0.250
  WS02003060           JUNCTION     16.53   706.52     0  03:17       0.466        11.2       0.171
  WS02003066           JUNCTION      0.00   457.34     0  02:42           0        4.85       0.059
  WS02003059           JUNCTION      0.00   293.60     0  03:28           0        5.96       0.504
  WS02003067           JUNCTION      0.00   457.30     0  02:42           0        4.85       0.137
  WS02004401           JUNCTION      0.00   461.56     0  02:38           0        5.02       0.310
  WS02004402           JUNCTION      0.00   461.12     0  02:38           0           5       0.303
  WS02004403           JUNCTION      0.00   460.88     0  02:39           0        4.99       0.283
  WS02004404           JUNCTION      0.16   460.89     0  02:39     0.00457        4.98       0.222
  WS02004406           JUNCTION      0.00   460.83     0  02:39           0        4.95       0.546
  WS02004409           JUNCTION      0.00   460.71     0  02:40           0        4.92       0.187
  WS02004410           JUNCTION      0.00   459.51     0  02:40           0        4.91       0.226
  WS02004411           JUNCTION      0.00   458.57     0  02:41           0         4.9       0.244
  WS02004412           JUNCTION      0.00   457.94     0  02:41           0        4.89       0.282
  WS02004413           JUNCTION      0.00   457.51     0  02:42           0        4.87       0.446
  WS02004405           JUNCTION      0.04   460.87     0  02:39     0.00107        4.97       0.338
  WS02006109           JUNCTION      1.23   461.18     0  02:35      0.0347        5.08       0.338
  WS02006110           JUNCTION      0.00   461.18     0  02:35           0        5.06       0.280
  WS02006111           JUNCTION      0.00   475.16     0  02:35           0        5.04       0.047
  WS02006112           JUNCTION      8.28   467.26     0  02:35      0.0233        5.06       0.425
  WS02006113           JUNCTION      0.00   461.28     0  02:35           0        5.05       0.110
  WS02006115           JUNCTION      0.00   464.21     0  02:36           0        5.04       0.256
  WS02006116           JUNCTION      0.00   462.45     0  02:37           0        5.03       0.260
  WS02006230           JUNCTION     10.28   328.14     0  03:14        0.29        4.25       0.281
  WS02006231           JUNCTION      0.00   317.33     0  03:12           0        3.97       0.065
  WS02006232           JUNCTION      0.00   317.09     0  03:12           0        3.98       0.286
  WS02006234           JUNCTION      0.00   316.80     0  03:11           0        3.98       0.067
  WS02006235           JUNCTION      0.00   316.66     0  03:11           0        4.01       0.193
  WS02006238           JUNCTION      0.00   257.19     0  02:40           0        1.64       0.246
  WS02006240           JUNCTION      0.00   244.03     0  02:41           0        1.62       0.243
  WS02006242           JUNCTION      0.00   238.40     0  02:41           0        1.61       0.279
  WS02006243           JUNCTION      0.00   232.64     0  02:41           0         1.6      -0.243
  WS02006245           JUNCTION      0.00   229.93     0  02:42           0        1.61       0.148
  WS02006247           JUNCTION      0.00   228.07     0  02:42           0        1.61       0.002
  WS02006248           JUNCTION      0.00   229.01     0  02:29           0         1.6      -0.088
  WS02006249           JUNCTION      0.00   230.18     0  02:28           0        1.61       0.151
  WS02006239           JUNCTION      0.00   250.71     0  02:40           0        1.63       0.306
  WS02006251           JUNCTION      0.08   231.55     0  02:27     0.00217        1.61      -0.014
  WS02006252           JUNCTION      0.00   200.00     0  02:25           0        1.47       0.011
  WS02006253           JUNCTION      1.27    36.02     0  02:18     0.00302       0.134      -0.145
  WS02006256           JUNCTION      0.00   600.00     0  00:00           0        4.12       0.048
  WS02004138           JUNCTION      0.00   285.00     0  00:00           0        5.84       0.074
  WS02004407           JUNCTION      0.00   460.77     0  02:39           0        4.92       0.087
  WS02006228           JUNCTION      0.00   459.95     0  02:35           0        5.06       0.226
  WS02006229           JUNCTION      0.00   459.94     0  02:34           0        5.07       0.172
  WS02006280           JUNCTION      0.00   186.81     0  02:19           0       0.825       0.008
  WS02006284           JUNCTION      0.10   186.82     0  02:19      0.0027       0.827       0.129
  WS02006287           JUNCTION      0.00   186.74     0  02:19           0       0.825       0.088
  WSF200               JUNCTION      0.00   457.33     0  02:42           0        4.84       0.046
  HS02004901           JUNCTION     10.26    10.26     0  02:11      0.0281      0.0282       6.639
  HS02004881           JUNCTION      4.14    35.05     0  02:18      0.0122       0.128       0.204
  HS02004876           JUNCTION      6.53    31.23     0  02:18      0.0235       0.117       0.452
  HS02004870           JUNCTION      7.27    24.85     0  02:18      0.0232      0.0932       0.114
  HS02004862           JUNCTION      5.95    18.09     0  02:19      0.0287      0.0702       0.240
  HS02004856           JUNCTION      5.38    12.19     0  02:18      0.0174      0.0429       3.475
  HS02004852           JUNCTION      0.00     7.16     0  02:18           0      0.0255       0.196
  HS02004848           JUNCTION     11.75    11.75     0  02:21      0.0551      0.0551       0.079
  HS02004842           JUNCTION      0.00     4.99     0  02:31           0      0.0426      43.906
  HS02004837           JUNCTION     17.96    22.24     0  02:17       0.219       0.249       0.328
  HS02004830           JUNCTION      0.15    22.38     0  02:18     0.00423       0.239       0.517
  HS02004824           JUNCTION     13.16    35.37     0  02:21      0.0722        0.31       0.174
  HS02004817           JUNCTION      0.60    35.97     0  02:22      0.0169       0.327       5.375
  HS02004807           JUNCTION     13.69    48.40     0  02:20      0.0426       0.353       1.213
  HS02004802           JUNCTION      0.00    48.62     0  02:21           0       0.348       1.178
  HS02004799           JUNCTION     10.51   117.84     0  02:16      0.0345       0.423       0.538
  HS02004792           JUNCTION     47.16   107.58     0  02:16       0.152       0.389       0.106
  HS02004788           JUNCTION     15.92    62.63     0  02:17       0.095       0.238       0.163
  HS02004785           JUNCTION      0.15    47.14     0  02:16     0.00423       0.145       0.332
  HS02004777           JUNCTION      0.03    47.61     0  02:14    0.000846       0.146       3.685
  HS02004770           JUNCTION     39.98    48.91     0  02:12        0.12       0.146       2.161
  HS02004480           JUNCTION      0.00   139.03     0  02:17           0       0.492       0.146
  HS02004479           JUNCTION      0.00    21.51     0  02:19           0      0.0817       0.900
  HS02004478           JUNCTION      0.00   186.73     0  02:18           0       0.825       0.076
  YS02001745           JUNCTION     64.65    82.85     0  06:18       0.719       0.752       0.930
  YS02001748           JUNCTION      0.04   173.77     0  03:48     0.00127       0.868       2.459
  YS02001751           JUNCTION      0.01   215.23     0  03:51     0.00031       0.816       2.938
  YS02001754           JUNCTION      0.26   168.61     0  03:38     0.00733       0.727       3.493
  YS02001762           JUNCTION      0.00   112.81     0  03:47           0       0.769       2.826
  YS02001765           JUNCTION      0.00   100.27     0  03:01           0       0.771       3.215
  YS02001767           JUNCTION      0.54   144.67     0  03:59      0.0151       0.794       4.721
  YS02001770           JUNCTION     83.46   135.41     0  03:59       0.846       0.911       3.667
  YS02001774           JUNCTION      0.00    98.28     0  03:59           0       0.162      18.492
  YS02001779           JUNCTION      0.01    98.92     0  03:59    0.000141      0.0719      27.011
  YS02001882           JUNCTION      0.00     3.62     0  02:08           0     0.00472      51.965
  YS02001884           JUNCTION      0.00    10.60     0  02:08           0       0.019      33.211
  YS02001759           JUNCTION     81.73   182.43     0  02:52        0.79        1.53       1.530
  YS02001887           JUNCTION    108.16   108.16     0  02:43       0.949       0.959       0.738
  YS02001890           JUNCTION      0.00   107.47     0  02:46           0       0.936       0.829
  YS02001898           JUNCTION      0.00   106.97     0  02:49           0       0.924       0.225
  YS02001901           JUNCTION      0.00   106.84     0  02:48           0       0.924       0.585
  YS02001904           JUNCTION      0.00   106.52     0  02:50           0       0.923       0.545
  YS02001907           JUNCTION      0.00   193.24     0  02:56           0        1.97       1.119
  YS02001910           JUNCTION      0.00    87.96     0  03:00           0        1.06       0.951
  YS02001915           JUNCTION     58.01    87.61     0  03:01       0.617        1.06       0.414
  YS02001918           JUNCTION      0.00    29.86     0  03:02           0       0.447       0.235
  YS02001619           JUNCTION     56.37    58.84     0  04:15       0.608       0.611       2.089
  YS02001629           JUNCTION      0.00   114.22     0  03:56           0       0.555       5.569
  YS02001641           JUNCTION      0.00   144.12     0  03:44           0        1.14       1.799
  YS02001644           JUNCTION     61.40   193.15     0  02:58        0.69         1.8       1.400
  YS02001652           JUNCTION      0.00   148.32     0  03:52           0       0.701       3.431
  YS02001655           JUNCTION      0.15   203.42     0  03:49     0.00434       0.756       3.376
  YS02001920           JUNCTION      2.87    29.87     0  03:02      0.0809       0.449       0.435
  YS02001923           JUNCTION      0.04    27.01     0  03:01     0.00106       0.369       0.076
  YS02001926           JUNCTION      0.05    27.03     0  03:01     0.00147       0.369       0.548
  YS02001929           JUNCTION     26.99    26.99     0  03:01       0.368       0.368       0.074
  YS02001658           JUNCTION      0.00   166.97     0  03:53           0       0.789       2.757
  YS02001661           JUNCTION      0.00    76.48     0  02:45           0       0.715       1.891
  YS02001664           JUNCTION     76.49    76.49     0  02:45       0.692       0.692       0.081
  YS02001622           JUNCTION      0.00    88.87     0  04:15           0       0.606       5.571
  YS02001633           JUNCTION     62.42   141.71     0  02:59       0.711        1.19       2.641
  YS02001649           JUNCTION      0.00   294.64     0  02:59           0         2.4       1.551
  YS02001757           JUNCTION      0.00   487.73     0  03:01           0        4.48       2.101
  YS02001895           JUNCTION      0.00   107.14     0  02:46           0       0.928       0.389
  YS02001625           JUNCTION      0.00   137.97     0  03:55           0       0.598       6.995
  YS02163301           JUNCTION      0.00    96.89     0  03:44           0       0.508       4.851
  YS02163601           JUNCTION      0.11   144.72     0  04:02      0.0031        1.16       2.613
  YS02164001           JUNCTION      0.00   150.42     0  03:47           0        1.14       1.689
  YS02001647           JUNCTION      0.00   190.82     0  03:07           0        1.76       1.672
  YSB1154              JUNCTION     11.61    11.61     0  02:15      0.0418      0.0431       3.463
  YSB6556              JUNCTION      0.00    11.58     0  02:18           0      0.0442       2.900
  YSB1174              JUNCTION     11.71    11.71     0  02:10      0.0305      0.0315       4.246
  YSB1171              JUNCTION      0.00    21.63     0  02:17           0      0.0812       8.435
  YS02006553           JUNCTION      0.00   193.30     0  02:57           0        1.96       0.727
  YS02006561           JUNCTION      0.00   283.73     0  02:55           0        2.77       0.023
  YS02006556           JUNCTION      0.00   193.41     0  03:02           0        1.96       0.523
  YS02006558           JUNCTION     91.38   283.74     0  02:54       0.864         2.8       0.160
  YS02001783           JUNCTION      0.00   283.73     0  02:55           0        2.77       0.052
  YS02001784           JUNCTION      1.06   284.79     0  02:55      0.0299         2.8       0.086
  YS02001786           JUNCTION      0.06   284.83     0  02:55     0.00159         2.8       0.084
  YS02001788           JUNCTION      0.07   284.90     0  02:56       0.002         2.8       0.048
  YS02001790           JUNCTION      0.15   285.26     0  02:59     0.00437         2.8       0.062
  YS02001791           JUNCTION      0.00   310.66     0  03:01           0         2.8       0.034
  YS02001793           JUNCTION      0.00   548.08     0  03:01           0         2.8       0.010
  WS02004139           JUNCTION      0.32   290.33     0  00:00     0.00905        5.85       0.559
  WSC                  OUTFALL       0.00   708.69     0  03:20           0        11.2       0.000
  3                    OUTFALL       0.00   597.65     0  00:00           0        1.72       0.000
  4                    OUTFALL       0.00     0.00     0  00:00           0           0       0.000 ltr
  5                    OUTFALL       0.00     0.00     0  00:00           0           0       0.000 ltr
  JK-storage           STORAGE       0.00   714.06     0  03:27           0        2.95     -28.353
  CC-storage           STORAGE       0.00   472.59     0  03:02           0        4.34       1.295
  XR-storage           STORAGE     305.10   305.10     0  02:53        6.84        7.44       0.000
  
  
  **********************
  Node Surcharge Summary
  **********************
  
  Surcharging occurs when water rises above the top of the highest conduit.
  ---------------------------------------------------------------------
                                               Max. Height   Min. Depth
                                   Hours       Above Crown    Below Rim
  Node                 Type      Surcharged         Meters       Meters
  ---------------------------------------------------------------------
  WS02006109           JUNCTION        0.48          0.065        1.755
  WS02006256           JUNCTION        0.01          1.050        0.000
  WS02006228           JUNCTION        0.43          0.075        2.125
  YS02001751           JUNCTION        1.07          0.129        1.071
  YS02001754           JUNCTION        2.37          0.350        0.800
  YS02001762           JUNCTION        4.02          0.608        0.542
  YS02001765           JUNCTION        3.82          0.557        0.543
  YS02001767           JUNCTION        3.71          0.519        0.511
  YS02001770           JUNCTION        3.56          0.483        0.437
  YS02001774           JUNCTION        3.93          0.587        0.463
  YS02001779           JUNCTION        2.20          0.323        0.357
  YS02001759           JUNCTION        4.93          0.644        0.566
  YS02001619           JUNCTION        0.69          0.080        0.530
  YS02001629           JUNCTION        0.70          0.080        0.390
  YS02001641           JUNCTION        3.86          0.572        0.528
  YS02001644           JUNCTION        3.87          0.577        0.343
  YS02001652           JUNCTION        2.53          0.382        0.748
  YS02001655           JUNCTION        1.25          0.158        1.042
  YS02001622           JUNCTION        0.88          0.105        0.515
  YS02001633           JUNCTION        3.75          0.535        0.525
  YS02001649           JUNCTION        4.17          0.618        0.432
  YS02001757           JUNCTION        5.23          0.747        0.463
  YS02001625           JUNCTION        2.66          0.405        0.375
  YS02163301           JUNCTION        3.59          0.492        0.538
  YS02163601           JUNCTION        4.05          0.611        0.469
  YS02164001           JUNCTION        3.80          0.551        0.549
  YS02001647           JUNCTION        2.63          0.398        0.502
  YS02001793           JUNCTION        0.06          0.368        2.232
  
  
  *********************
  Node Flooding Summary
  *********************
  
  Flooding refers to all water that overflows a node, whether it ponds or not.
  --------------------------------------------------------------------------
                                                             Total   Maximum
                                 Maximum   Time of Max       Flood    Ponded
                        Hours       Rate    Occurrence      Volume     Depth
  Node                 Flooded       LPS   days hr:min    10^6 ltr    Meters
  --------------------------------------------------------------------------
  WS02006256              0.01    406.11      0  00:00       0.001     0.000
  XR-storage              3.24    162.80      0  04:35       0.675     0.000
  
  
  **********************
  Storage Volume Summary
  **********************
  
  --------------------------------------------------------------------------------------------------
                         Average     Avg  Evap Exfil       Maximum     Max    Time of Max    Maximum
                          Volume    Pcnt  Pcnt  Pcnt        Volume    Pcnt     Occurrence    Outflow
  Storage Unit           1000 m3    Full  Loss  Loss       1000 m3    Full    days hr:min        LPS
  --------------------------------------------------------------------------------------------------
  JK-storage               0.054      19     0     0         0.256      88       0  03:00     600.00
  CC-storage               1.128       7     0     0         2.807      18       0  07:50     200.00
  XR-storage               0.680      73     0     0         0.926     100       0  04:35     285.00
  
  
  ***********************
  Outfall Loading Summary
  ***********************
  
  -----------------------------------------------------------
                         Flow       Avg       Max       Total
                         Freq      Flow      Flow      Volume
  Outfall Node           Pcnt       LPS       LPS    10^6 ltr
  -----------------------------------------------------------
  WSC                   99.99    458.56    708.69      11.202
  3                     82.35    127.41    597.65       1.721
  4                      0.00      0.00      0.00       0.000
  5                      0.00      0.00      0.00       0.000
  -----------------------------------------------------------
  System                45.59    585.97   1103.65      12.924
  
  
  ********************
  Link Flow Summary
  ********************
  
  -----------------------------------------------------------------------------
                                 Maximum  Time of Max   Maximum    Max/    Max/
                                  |Flow|   Occurrence   |Veloc|    Full    Full
  Link                 Type          LPS  days hr:min     m/sec    Flow   Depth
  -----------------------------------------------------------------------------
  WS02003066WSF200     CONDUIT    457.33     0  02:42      2.63    0.08    0.21
  WS02006287WS02006284 CONDUIT    186.72     0  02:19      1.57    0.09    0.21
  WS02006284WS02006280 CONDUIT    186.81     0  02:19      1.81    0.08    0.19
  WS02006280WS02006229 CONDUIT    186.82     0  02:19      2.91    0.04    0.14
  WS02006229WS02006228 CONDUIT    459.95     0  02:35      0.92    1.52    1.00
  WS02006256WS02006235 CONDUIT    177.52     0  00:01      2.73    1.88    1.00
  WS02006253WS02006251 CONDUIT     36.05     0  02:20      0.47    0.11    0.63
  WS02006252WS02006251 CONDUIT    200.33     0  04:20      1.97    0.74    0.76
  WS02006251WS02006249 CONDUIT    230.18     0  02:28      0.96    0.66    0.62
  WS02006249WS02006248 CONDUIT    229.01     0  02:29      1.04    1.25    0.60
  WS02006248WS02006247 CONDUIT    228.07     0  02:42      1.01    0.50    0.63
  WS02006247WS02006245 CONDUIT    229.93     0  02:42      0.97    1.82    0.66
  WS02006245WS02006243 CONDUIT    232.64     0  02:41      1.01    0.69    0.67
  WS02006243WS02006242 CONDUIT    238.40     0  02:41      0.85    0.51    0.76
  WS02006242WS02006240 CONDUIT    244.03     0  02:41      0.79    0.97    0.83
  WS02006240WS02006239 CONDUIT    250.71     0  02:40      0.85    0.79    0.81
  WS02006239WS02006238 CONDUIT    257.19     0  02:40      0.76    0.82    0.90
  WS02006238WS02006235 CONDUIT    260.73     0  02:40      1.32    0.58    0.93
  WS02006235WS02006234 CONDUIT    316.80     0  03:11      0.94    3.34    0.88
  WS02006234WS02006232 CONDUIT    317.09     0  03:12      1.17    0.64    0.94
  WS02006232WS02006231 CONDUIT    317.33     0  03:12      0.94    0.66    0.90
  WS02006231WS02006230 CONDUIT    317.86     0  03:14      1.28    4.82    0.77
  WS02006230WS02006229 CONDUIT    329.16     0  03:13      0.86    7.33    1.00
  WS02006228WS02006109 CONDUIT    459.95     0  02:35      0.92    2.01    1.00
  WS02006116WS02004401 CONDUIT    461.56     0  02:38      0.70    0.64    0.78
  WS02006115WS02006116 CONDUIT    462.45     0  02:37      0.80    0.59    0.70
  WS02006113WS02006111 CONDUIT    475.16     0  02:35      2.33    0.57    0.43
  WS02006112WS02006115 CONDUIT    464.21     0  02:36      0.68    0.27    0.83
  WS02006111WS02006112 CONDUIT    462.93     0  02:35      1.32    0.22    0.66
  WS02006110WS02006113 CONDUIT    461.28     0  02:35      1.12    0.42    0.76
  WS02006109WS02006110 CONDUIT    461.18     0  02:35      0.93    0.89    0.97
  WS02004411WS02004412 CONDUIT    457.94     0  02:41      0.86    0.65    0.64
  WS02004401WS02004402 CONDUIT    461.12     0  02:38      0.68    0.55    0.81
  WS02004413WS02003067 CONDUIT    457.30     0  02:42      1.02    0.20    0.56
  WS02004412WS02004413 CONDUIT    457.51     0  02:42      0.74    0.31    0.73
  WS02004410WS02004411 CONDUIT    458.57     0  02:41      0.88    0.63    0.63
  WS02004409WS02004410 CONDUIT    459.51     0  02:40      0.91    0.59    0.62
  WS02004407WS02004409 CONDUIT    460.71     0  02:40      1.39    0.16    0.44
  WS02004406WS02004407 CONDUIT    460.77     0  02:39      0.95    0.21    0.59
  WS02004405WS02004406 CONDUIT    460.83     0  02:39      0.61    0.91    0.91
  WS02004404WS02004405 CONDUIT    460.83     0  02:39      0.61    4.51    0.91
  WS02004403WS02004404 CONDUIT    460.73     0  02:39      0.63    0.33    0.88
  WS02004402WS02004403 CONDUIT    460.88     0  02:39      0.66    0.66    0.83
  WS02004139WS02001211 CONDUIT    285.49     0  03:28      0.80    0.36    0.52
  WS02004138WS02004139 CONDUIT    290.01     0  00:00      3.34    0.06    0.38
  WS02003067WS02003066 CONDUIT    457.34     0  02:42      1.10    0.15    0.39
  WS02001213WS02003059 CONDUIT    293.60     0  03:28      0.80    0.48    0.69
  WS02001212WS02001213 CONDUIT    293.24     0  03:29      1.19    0.45    0.39
  WS02001211WS02001212 CONDUIT    293.05     0  03:29      0.67    0.22    0.57
  WS02003072WS02003073 CONDUIT    706.87     0  03:19      1.56    1.53    0.42
  WS02003069WS02003072 CONDUIT    706.87     0  03:19      1.48    0.34    0.44
  WS02003060WS02003069 CONDUIT    706.56     0  03:18      1.74    0.28    0.39
  WS02003059WS02003060 CONDUIT    294.09     0  03:27      0.82    0.19    0.58
  HS02004901HS02004770 CONDUIT      9.30     0  02:15      0.04    0.04    0.31
  HS02004876HS02004881 CONDUIT     31.29     0  02:19      0.52    0.33    0.09
  HS02004870HS02004876 CONDUIT     24.83     0  02:19      0.37    0.02    0.10
  HS02004842HS02004848 CONDUIT      4.99     0  02:31      0.03    0.00    0.27
  HS02004837HS02004842 CONDUIT      5.16     0  02:31      0.41    0.00    0.29
  HS02004830HS02004837 CONDUIT     22.23     0  02:18      0.43    0.02    0.07
  HS02004824HS02004830 CONDUIT     22.37     0  02:19      0.47    0.03    0.07
  HS02004817HS02004824 CONDUIT     35.37     0  02:22      0.17    0.02    0.39
  HS02004770HS02004777 CONDUIT     47.58     0  02:14      0.21    0.09    0.32
  HS02004799HS02004480 CONDUIT    117.63     0  02:17      0.56    0.15    0.30
  HS02004792HS02004799 CONDUIT    107.52     0  02:16      0.65    0.07    0.24
  HS02004788HS02004792 CONDUIT     62.57     0  02:18      0.80    0.04    0.11
  HS02004785HS02004788 CONDUIT     47.05     0  02:18      0.49    0.35    0.14
  HS02004777HS02004785 CONDUIT     46.99     0  02:16      0.26    0.06    0.26
  HS02004480HS02004478 CONDUIT    138.92     0  02:18      0.92    0.59    0.22
  HS02004479HS02004480 CONDUIT     21.74     0  02:20      0.16    0.02    0.29
  HS02004862HS02004870 CONDUIT     18.05     0  02:20      0.45    0.02    0.06
  HS02004848HS02004852 CONDUIT      7.16     0  02:18      0.30    0.01    0.03
  HS02004856HS02004862 CONDUIT     12.16     0  02:19      0.33    0.01    0.05
  HS02004852HS02004856 CONDUIT      7.13     0  02:20      0.11    0.01    0.09
  HS02004802HS02004478 CONDUIT     48.91     0  02:22      0.29    0.04    0.24
  HS02004478WS02006287 CONDUIT    186.74     0  02:19      1.26    0.05    0.16
  HS02004817HS02004807 CONDUIT     36.40     0  02:23      0.10    0.02    0.50
  HS02004807HS02004802 CONDUIT     48.62     0  02:21      0.24    0.09    0.29
  YS02001759YS02001757 CONDUIT    177.80     0  02:53      0.23    0.13    1.00
  YS02001762YS02001759 CONDUIT    105.77     0  03:34      0.17    0.12    1.00
  YS02001765YS02001762 CONDUIT    112.81     0  03:47      0.23    0.11    1.00
  YS02001770YS02001767 CONDUIT    134.37     0  03:59      0.32    0.53    1.00
  YS02001774YS02001770 CONDUIT     98.28     0  03:59      0.14    0.06    1.00
  YS02001779YS02001774 CONDUIT     98.92     0  03:59      0.13    0.05    1.00
  YS02001649YS02001757 CONDUIT    302.56     0  03:38      0.39    0.18    1.00
  YS02001767YS02001765 CONDUIT    100.27     0  03:01      0.26    0.13    1.00
  YS02006561YS02001783 CONDUIT    283.73     0  02:55      1.74    0.15    0.36
  YS02001783YS02001784 CONDUIT    283.73     0  02:55      1.19    0.39    0.48
  YS02001784YS02001785 CONDUIT    284.78     0  02:55      1.26    0.66    0.46
  YS02001788YS02001790 CONDUIT    285.10     0  02:59      1.83    0.21    0.36
  YS02001790YS02001791 CONDUIT    310.66     0  03:01      2.15    0.34    0.49
  YS02001791YS02001793 CONDUIT    548.08     0  03:01      4.26    0.24    0.80
  YS02001910YS02001907 CONDUIT     88.11     0  03:01      0.49    0.05    0.71
  YS02001786YS02001788 CONDUIT    284.83     0  02:56      1.70    0.55    0.37
  YS02001915YS02001910 CONDUIT     87.96     0  03:00      0.44    0.04    0.50
  YS02001918YS02001915 CONDUIT     29.84     0  03:03      0.44    0.02    0.24
  YS02001923YS02001920 CONDUIT     27.00     0  03:02      0.42    0.01    0.14
  YS02001926YS02001923 CONDUIT     26.97     0  03:01      0.47    0.04    0.13
  YS02001929YS02001926 CONDUIT     26.97     0  03:01      0.49    0.01    0.12
  YS02001920YS02001918 CONDUIT     29.86     0  03:02      0.44    0.03    0.14
  YS02001629YS02163301 CONDUIT     96.89     0  03:44      0.14    0.12    1.00
  YS02001619YS02001622 CONDUIT     88.87     0  04:15      0.64    0.13    1.00
  YS02001622YS02001625 CONDUIT     98.79     0  03:46      0.24    0.05    1.00
  YS02001625YS02001629 CONDUIT    114.22     0  03:56      0.24    0.05    1.00
  YS02163301YS02001633 CONDUIT     79.33     0  02:59      0.11    0.07    1.00
  YS02163601YS02164001 CONDUIT    150.42     0  03:47      0.19    0.13    1.00
  YS02164001YS02001641 CONDUIT    144.12     0  03:44      0.19    0.20    1.00
  YS02001641YS02001644 CONDUIT    132.69     0  03:10      0.17    0.43    1.00
  YS02001647YS02001649 CONDUIT    241.28     0  04:01      0.32    0.13    1.00
  YS02006553YS02006556 CONDUIT    193.41     0  03:02      0.29    0.17    0.80
  YS02006556YS02006558 CONDUIT    193.60     0  03:02      0.28    0.15    0.82
  YSB6556YSB1171       CONDUIT     11.76     0  02:19      0.05    0.01    0.56
  YS02001907YS02006553 CONDUIT    193.30     0  02:57      0.24    0.23    0.90
  YS02006558YS02006561 CONDUIT    283.73     0  02:55      2.24    0.63    0.46
  YS02001633YS02163601 CONDUIT    144.61     0  04:02      0.18    0.15    1.00
  YS02001644YS02001647 CONDUIT    190.82     0  03:07      0.26    0.11    1.00
  YS02001745YS02001748 CONDUIT    105.00     0  06:25      1.37    0.04    0.67
  YS02001748YS02001751 CONDUIT    215.22     0  03:51      1.06    0.11    0.97
  YS02001751YS02001754 CONDUIT     89.77     0  03:04      0.95    0.04    1.00
  YS02001754YS02001757 CONDUIT    187.80     0  03:36      0.33    0.08    1.00
  YS02001882YS02001884 CONDUIT      3.62     0  02:08      0.06    0.00    0.44
  YS02001884YS02001887 CONDUIT     10.60     0  02:08      0.06    0.01    0.53
  YS02001890YS02001895 CONDUIT    107.14     0  02:46      0.27    0.05    0.50
  YS02001895YS02001898 CONDUIT    106.97     0  02:49      0.47    0.19    0.37
  YS02001898YS02001901 CONDUIT    106.84     0  02:48      0.32    0.07    0.45
  YS02001901YS02001904 CONDUIT    106.52     0  02:50      0.27    0.17    0.50
  YS02001904YS02001907 CONDUIT    106.55     0  02:50      0.20    0.04    0.66
  YS02001887YS02001890 CONDUIT    107.47     0  02:46      0.23    0.18    0.59
  YS02001652YS02001649 CONDUIT    203.02     0  03:48      0.32    0.10    1.00
  YS02001655YS02001652 CONDUIT    115.76     0  03:32      1.03    0.06    1.00
  YS02001658YS02001655 CONDUIT    203.26     0  03:49      1.22    0.09    0.93
  YS02001661YS02001658 CONDUIT     76.48     0  02:45      1.41    0.03    0.70
  YS02001664YS02001661 CONDUIT     76.48     0  02:45      1.06    0.02    0.34
  YSB1154YSB6556       CONDUIT     11.58     0  02:18      0.19    0.02    0.45
  YSB1174YSB1171       CONDUIT     10.87     0  02:11      0.05    0.02    0.57
  YSB1171HS02004479    CONDUIT     21.51     0  02:19      0.54    0.01    0.44
  HS02004881HS02006253 CONDUIT     35.05     0  02:18      1.60    0.01    0.10
  YS02001793JiankangQianchi CONDUIT    714.06     0  03:27     12.32    0.06    1.00
  YS02001757CaochengTiaoxuchi CONDUIT    472.59     0  03:02      1.03    0.21    1.00
  WSF200WS02003060     CONDUIT    457.64     0  02:42      1.67    0.10    0.30
  1                    CONDUIT    708.69     0  03:20      3.03    0.25    0.34
  2                    CONDUIT      0.00     0  00:00      0.00    0.00    0.00
  3                    CONDUIT    597.65     0  00:00     10.11    0.95    0.86
  4                    CONDUIT      0.00     0  00:00      0.00    0.00    0.00
  CC-Pump-1            PUMP       200.00     0  02:25              1.00
  CC-Pump-2            PUMP         0.00     0  00:00              0.00
  JK-Pump-1            PUMP       300.00     0  00:00              1.00
  JK-Pump-2            PUMP       300.00     0  00:00              1.00
  XR-Pump-1            PUMP        95.00     0  02:20              1.00
  XR-Pump-2            PUMP        95.00     0  00:00              1.00
  XR-Pump-3            PUMP        95.00     0  00:00              1.00
  XR-Pump-4            PUMP        95.00     0  00:00              1.00
  
  
  ***************************
  Flow Classification Summary
  ***************************
  
  -------------------------------------------------------------------------------------
                      Adjusted    ---------- Fraction of Time in Flow Class ---------- 
                       /Actual         Up    Down  Sub   Sup   Up    Down  Norm  Inlet 
  Conduit               Length    Dry  Dry   Dry   Crit  Crit  Crit  Crit  Ltd   Ctrl  
  -------------------------------------------------------------------------------------
  WS02003066WSF200        1.00   0.09  0.00  0.00  0.00  0.91  0.00  0.00  0.71  0.00
  WS02006287WS02006284    1.00   0.05  0.02  0.00  0.62  0.31  0.00  0.00  0.78  0.00
  WS02006284WS02006280    1.00   0.05  0.00  0.00  0.00  0.00  0.00  0.95  0.00  0.00
  WS02006280WS02006229    1.00   0.05  0.00  0.00  0.00  0.00  0.00  0.95  0.00  0.00
  WS02006229WS02006228    1.00   0.00  0.00  0.00  0.98  0.00  0.00  0.02  0.00  0.00
  WS02006256WS02006235    1.00   0.00  0.00  0.00  0.99  0.01  0.00  0.00  0.00  0.00
  WS02006253WS02006251    1.00   0.03  0.02  0.00  0.94  0.00  0.01  0.00  0.00  0.00
  WS02006252WS02006251    1.00   0.11  0.00  0.00  0.00  0.00  0.89  0.00  0.00  0.00
  WS02006251WS02006249    1.00   0.00  0.00  0.00  1.00  0.00  0.00  0.00  0.68  0.00
  WS02006249WS02006248    1.00   0.00  0.02  0.00  0.52  0.00  0.45  0.00  0.00  0.00
  WS02006248WS02006247    1.00   0.03  0.00  0.00  0.96  0.00  0.00  0.01  0.58  0.00
  WS02006247WS02006245    1.00   0.03  0.00  0.00  0.95  0.00  0.00  0.02  0.00  0.00
  WS02006245WS02006243    1.00   0.02  0.00  0.00  0.91  0.00  0.00  0.06  0.06  0.00
  WS02006243WS02006242    1.00   0.01  0.01  0.00  0.98  0.00  0.00  0.00  0.27  0.00
  WS02006242WS02006240    1.00   0.01  0.00  0.00  0.99  0.00  0.00  0.00  0.00  0.00
  WS02006240WS02006239    1.00   0.00  0.00  0.00  0.93  0.00  0.00  0.06  0.02  0.00
  WS02006239WS02006238    1.00   0.00  0.00  0.00  1.00  0.00  0.00  0.00  0.00  0.00
  WS02006238WS02006235    1.00   0.00  0.00  0.00  1.00  0.00  0.00  0.00  0.00  0.00
  WS02006235WS02006234    1.00   0.00  0.00  0.00  0.93  0.00  0.07  0.00  0.00  0.00
  WS02006234WS02006232    1.00   0.00  0.00  0.00  0.99  0.01  0.00  0.00  0.00  0.00
  WS02006232WS02006231    1.00   0.00  0.00  0.00  0.99  0.00  0.01  0.00  0.00  0.00
  WS02006231WS02006230    1.00   0.01  0.00  0.00  0.35  0.00  0.65  0.00  0.00  0.00
  WS02006230WS02006229    1.00   0.00  0.00  0.00  0.98  0.00  0.00  0.02  0.01  0.00
  WS02006228WS02006109    1.00   0.00  0.00  0.00  0.99  0.00  0.00  0.00  0.00  0.00
  WS02006116WS02004401    1.00   0.03  0.00  0.00  0.97  0.00  0.00  0.00  0.00  0.00
  WS02006115WS02006116    1.00   0.03  0.00  0.00  0.96  0.00  0.00  0.02  0.01  0.00
  WS02006113WS02006111    1.00   0.02  0.00  0.00  0.00  0.98  0.00  0.00  0.18  0.00
  WS02006112WS02006115    1.00   0.02  0.00  0.00  0.97  0.00  0.00  0.00  0.00  0.00
  WS02006111WS02006112    1.00   0.02  0.00  0.00  0.97  0.00  0.00  0.00  0.98  0.00
  WS02006110WS02006113    1.00   0.02  0.00  0.00  0.98  0.00  0.00  0.00  0.00  0.00
  WS02006109WS02006110    1.00   0.00  0.02  0.00  0.98  0.00  0.00  0.00  0.00  0.00
  WS02004411WS02004412    1.00   0.07  0.00  0.00  0.93  0.00  0.00  0.00  0.00  0.00
  WS02004401WS02004402    1.00   0.03  0.00  0.00  0.97  0.00  0.00  0.00  0.00  0.00
  WS02004413WS02003067    1.00   0.07  0.02  0.00  0.00  0.00  0.91  0.00  0.00  0.00
  WS02004412WS02004413    1.00   0.07  0.00  0.00  0.93  0.00  0.00  0.00  0.03  0.00
  WS02004410WS02004411    1.00   0.07  0.00  0.00  0.93  0.00  0.00  0.00  0.01  0.00
  WS02004409WS02004410    1.00   0.07  0.00  0.00  0.93  0.00  0.00  0.00  0.00  0.00
  WS02004407WS02004409    1.00   0.07  0.00  0.00  0.93  0.00  0.00  0.00  0.80  0.00
  WS02004406WS02004407    1.00   0.00  0.06  0.00  0.93  0.00  0.00  0.00  0.00  0.00
  WS02004405WS02004406    1.00   0.00  0.00  0.00  1.00  0.00  0.00  0.00  0.02  0.00
  WS02004404WS02004405    1.00   0.00  0.00  0.00  1.00  0.00  0.00  0.00  0.00  0.00
  WS02004403WS02004404    1.00   0.00  0.03  0.00  0.97  0.00  0.00  0.00  0.02  0.00
  WS02004402WS02004403    1.00   0.03  0.00  0.00  0.97  0.00  0.00  0.00  0.00  0.00
  WS02004139WS02001211    1.00   0.00  0.00  0.00  0.99  0.00  0.01  0.00  0.00  0.00
  WS02004138WS02004139    1.00   0.00  0.00  0.00  0.98  0.01  0.00  0.00  1.00  0.00
  WS02003067WS02003066    1.00   0.09  0.01  0.00  0.91  0.00  0.00  0.00  0.00  0.00
  WS02001213WS02003059    1.00   0.01  0.01  0.00  0.99  0.00  0.00  0.00  0.00  0.00
  WS02001212WS02001213    1.00   0.01  0.00  0.00  0.52  0.00  0.47  0.00  0.00  0.00
  WS02001211WS02001212    1.00   0.00  0.01  0.00  0.99  0.00  0.00  0.00  0.00  0.00
  WS02003072WS02003073    1.00   0.00  0.00  0.00  0.00  0.00  0.00  1.00  0.00  0.00
  WS02003069WS02003072    1.00   0.00  0.00  0.00  0.99  0.01  0.00  0.00  0.61  0.00
  WS02003060WS02003069    1.00   0.00  0.00  0.00  0.96  0.04  0.00  0.00  0.06  0.00
  WS02003059WS02003060    1.00   0.00  0.00  0.00  0.99  0.01  0.00  0.00  0.01  0.00
  HS02004901HS02004770    1.00   0.05  0.00  0.00  0.95  0.00  0.00  0.00  0.03  0.00
  HS02004876HS02004881    1.00   0.03  0.00  0.00  0.97  0.00  0.00  0.00  0.00  0.00
  HS02004870HS02004876    1.00   0.01  0.00  0.00  0.99  0.00  0.00  0.00  0.95  0.00
  HS02004842HS02004848    1.00   0.00  0.05  0.00  0.95  0.00  0.00  0.00  0.69  0.00
  HS02004837HS02004842    1.00   0.00  0.00  0.00  0.99  0.01  0.00  0.00  0.11  0.00
  HS02004830HS02004837    1.00   0.00  0.00  0.00  1.00  0.00  0.00  0.00  0.99  0.00
  HS02004824HS02004830    1.00   0.00  0.00  0.00  1.00  0.00  0.00  0.00  0.00  0.00
  HS02004817HS02004824    1.00   0.00  0.00  0.00  1.00  0.00  0.00  0.00  1.00  0.00
  HS02004770HS02004777    1.00   0.00  0.05  0.00  0.95  0.00  0.00  0.00  0.07  0.00
  HS02004799HS02004480    1.00   0.01  0.02  0.00  0.93  0.00  0.04  0.00  0.00  0.00
  HS02004792HS02004799    1.00   0.00  0.00  0.00  0.98  0.02  0.00  0.00  0.98  0.00
  HS02004788HS02004792    1.00   0.00  0.00  0.00  0.98  0.02  0.00  0.00  0.98  0.00
  HS02004785HS02004788    1.00   0.00  0.00  0.00  1.00  0.00  0.00  0.00  0.00  0.00
  HS02004777HS02004785    1.00   0.00  0.00  0.00  1.00  0.00  0.00  0.00  0.21  0.00
  HS02004480HS02004478    1.00   0.06  0.00  0.00  0.67  0.00  0.00  0.27  0.00  0.00
  HS02004479HS02004480    1.00   0.03  0.00  0.00  0.97  0.00  0.00  0.00  0.16  0.00
  HS02004862HS02004870    1.00   0.00  0.00  0.00  1.00  0.00  0.00  0.00  0.06  0.00
  HS02004848HS02004852    1.00   0.05  0.00  0.00  0.95  0.00  0.00  0.00  0.71  0.00
  HS02004856HS02004862    1.00   0.00  0.08  0.00  0.92  0.00  0.00  0.00  0.74  0.00
  HS02004852HS02004856    1.00   0.05  0.01  0.00  0.94  0.00  0.00  0.00  0.83  0.00
  HS02004802HS02004478    1.00   0.05  0.01  0.00  0.94  0.00  0.00  0.00  0.01  0.00
  HS02004478WS02006287    1.00   0.07  0.00  0.00  0.86  0.07  0.00  0.00  0.79  0.00
  HS02004817HS02004807    1.00   0.00  0.05  0.00  0.95  0.00  0.00  0.00  0.00  0.00
  HS02004807HS02004802    1.00   0.05  0.00  0.00  0.94  0.00  0.00  0.00  0.01  0.00
  YS02001759YS02001757    1.00   0.00  0.00  0.00  1.00  0.00  0.00  0.00  0.17  0.00
  YS02001762YS02001759    1.00   0.00  0.00  0.00  1.00  0.00  0.00  0.00  0.05  0.00
  YS02001765YS02001762    1.00   0.00  0.00  0.00  1.00  0.00  0.00  0.00  0.22  0.00
  YS02001770YS02001767    1.00   0.00  0.00  0.00  1.00  0.00  0.00  0.00  0.00  0.00
  YS02001774YS02001770    1.00   0.00  0.06  0.00  0.94  0.00  0.00  0.00  0.07  0.00
  YS02001779YS02001774    1.00   0.00  0.00  0.00  1.00  0.00  0.00  0.00  0.27  0.00
  YS02001649YS02001757    1.00   0.00  0.00  0.00  1.00  0.00  0.00  0.00  0.19  0.00
  YS02001767YS02001765    1.00   0.00  0.00  0.00  1.00  0.00  0.00  0.00  0.01  0.00
  YS02006561YS02001783    1.00   0.09  0.00  0.00  0.00  0.91  0.00  0.00  0.73  0.00
  YS02001783YS02001784    1.00   0.00  0.09  0.00  0.91  0.00  0.00  0.00  0.00  0.00
  YS02001784YS02001785    1.00   0.00  0.00  0.00  1.00  0.00  0.00  0.00  0.25  0.00
  YS02001788YS02001790    1.00   0.00  0.00  0.00  0.09  0.91  0.00  0.00  0.80  0.00
  YS02001790YS02001791    1.00   0.00  0.00  0.00  0.04  0.96  0.00  0.00  0.49  0.00
  YS02001791YS02001793    1.00   0.00  0.00  0.00  0.12  0.88  0.00  0.00  0.05  0.00
  YS02001910YS02001907    1.00   0.00  0.00  0.00  0.97  0.00  0.00  0.03  0.13  0.00
  YS02001786YS02001788    1.00   0.00  0.00  0.00  0.09  0.91  0.00  0.00  0.00  0.00
  YS02001915YS02001910    1.00   0.00  0.00  0.00  1.00  0.00  0.00  0.00  0.24  0.00
  YS02001918YS02001915    1.00   0.00  0.01  0.00  0.98  0.01  0.00  0.00  0.81  0.00
  YS02001923YS02001920    1.00   0.00  0.00  0.00  1.00  0.00  0.00  0.00  1.00  0.00
  YS02001926YS02001923    1.00   0.00  0.04  0.00  0.00  0.00  0.96  0.00  0.00  0.00
  YS02001929YS02001926    1.00   0.00  0.05  0.00  0.95  0.00  0.00  0.00  0.87  0.00
  YS02001920YS02001918    1.00   0.00  0.01  0.00  0.99  0.00  0.00  0.00  0.00  0.00
  YS02001629YS02163301    1.00   0.07  0.01  0.00  0.92  0.00  0.00  0.00  0.00  0.00
  YS02001619YS02001622    1.00   0.05  0.00  0.00  0.95  0.00  0.00  0.00  0.00  0.00
  YS02001622YS02001625    1.00   0.05  0.00  0.00  0.95  0.00  0.00  0.00  0.13  0.00
  YS02001625YS02001629    1.00   0.05  0.03  0.00  0.89  0.00  0.02  0.00  0.00  0.00
  YS02163301YS02001633    1.00   0.00  0.07  0.00  0.93  0.00  0.00  0.00  0.00  0.00
  YS02163601YS02164001    1.00   0.00  0.04  0.00  0.96  0.00  0.00  0.00  0.00  0.00
  YS02164001YS02001641    1.00   0.02  0.02  0.00  0.96  0.00  0.00  0.00  0.07  0.00
  YS02001641YS02001644    1.00   0.00  0.01  0.00  0.99  0.00  0.00  0.00  0.00  0.00
  YS02001647YS02001649    1.00   0.00  0.08  0.00  0.91  0.00  0.00  0.00  0.01  0.00
  YS02006553YS02006556    1.00   0.02  0.00  0.00  0.98  0.00  0.00  0.00  0.03  0.00
  YS02006556YS02006558    1.00   0.00  0.01  0.00  0.99  0.00  0.00  0.00  0.00  0.00
  YSB6556YSB1171          1.00   0.03  0.02  0.00  0.95  0.00  0.00  0.00  0.00  0.00
  YS02001907YS02006553    1.00   0.01  0.02  0.00  0.97  0.00  0.00  0.00  0.00  0.00
  YS02006558YS02006561    1.00   0.09  0.00  0.00  0.00  0.91  0.00  0.00  0.72  0.00
  YS02001633YS02163601    1.00   0.00  0.02  0.00  0.98  0.00  0.00  0.00  0.20  0.00
  YS02001644YS02001647    1.00   0.00  0.09  0.00  0.91  0.00  0.00  0.00  0.00  0.00
  YS02001745YS02001748    1.00   0.00  0.00  0.00  0.79  0.04  0.00  0.17  0.32  0.00
  YS02001748YS02001751    1.00   0.00  0.00  0.00  0.96  0.04  0.00  0.00  0.25  0.00
  YS02001751YS02001754    1.00   0.00  0.00  0.00  0.91  0.00  0.00  0.09  0.02  0.00
  YS02001754YS02001757    1.00   0.00  0.00  0.00  0.99  0.01  0.00  0.00  0.26  0.00
  YS02001882YS02001884    1.00   0.07  0.01  0.00  0.92  0.00  0.00  0.00  0.00  0.00
  YS02001884YS02001887    1.00   0.03  0.01  0.00  0.95  0.00  0.00  0.00  0.00  0.00
  YS02001890YS02001895    1.00   0.01  0.07  0.00  0.92  0.00  0.00  0.00  0.00  0.00
  YS02001895YS02001898    1.00   0.08  0.00  0.00  0.91  0.00  0.01  0.00  0.00  0.00
  YS02001898YS02001901    1.00   0.07  0.01  0.00  0.92  0.00  0.00  0.00  0.02  0.00
  YS02001901YS02001904    1.00   0.07  0.00  0.00  0.93  0.00  0.00  0.00  0.00  0.00
  YS02001904YS02001907    1.00   0.01  0.07  0.00  0.93  0.00  0.00  0.00  0.00  0.00
  YS02001887YS02001890    1.00   0.00  0.01  0.00  0.97  0.00  0.02  0.00  0.00  0.00
  YS02001652YS02001649    1.00   0.00  0.00  0.00  1.00  0.00  0.00  0.00  0.26  0.00
  YS02001655YS02001652    1.00   0.00  0.00  0.00  0.91  0.00  0.00  0.09  0.02  0.00
  YS02001658YS02001655    1.00   0.00  0.07  0.00  0.89  0.04  0.00  0.00  0.13  0.00
  YS02001661YS02001658    1.00   0.07  0.00  0.00  0.79  0.14  0.00  0.00  0.34  0.00
  YS02001664YS02001661    1.00   0.05  0.00  0.00  0.75  0.20  0.00  0.00  0.81  0.00
  YSB1154YSB6556          1.00   0.05  0.00  0.00  0.95  0.00  0.00  0.00  0.02  0.00
  YSB1174YSB1171          1.00   0.03  0.01  0.00  0.96  0.00  0.00  0.00  0.00  0.00
  YSB1171HS02004479       1.00   0.03  0.00  0.00  0.97  0.00  0.00  0.00  0.13  0.00
  HS02004881HS02006253    1.00   0.03  0.00  0.00  0.43  0.01  0.00  0.53  0.25  0.00
  YS02001793JiankangQianchi    1.00   0.00  0.00  0.00  0.30  0.70  0.00  0.00  0.09  0.00
  YS02001757CaochengTiaoxuchi    1.00   0.00  0.11  0.00  0.89  0.00  0.00  0.00  0.00  0.00
  WSF200WS02003060        1.00   0.00  0.09  0.00  0.66  0.25  0.00  0.00  0.42  0.00
  1                       1.00   0.00  0.00  0.00  0.00  1.00  0.00  0.00  0.21  0.00
  2                       1.00   1.00  0.00  0.00  0.00  0.00  0.00  0.00  0.00  0.00
  3                       1.00   0.18  0.00  0.00  0.00  0.82  0.00  0.00  0.00  0.00
  4                       1.00   1.00  0.00  0.00  0.00  0.00  0.00  0.00  0.00  0.00
  
  
  *************************
  Conduit Surcharge Summary
  *************************
  
  ----------------------------------------------------------------------------
                                                           Hours        Hours 
                         --------- Hours Full --------   Above Full   Capacity
  Conduit                Both Ends  Upstream  Dnstream   Normal Flow   Limited
  ----------------------------------------------------------------------------
  WS02006229WS02006228        0.43      0.54      0.43      2.05         0.43
  WS02006256WS02006235        5.63      5.63      7.83      5.37         0.01
  WS02006249WS02006248        0.01      0.01      0.01      1.82         0.01
  WS02006247WS02006245        0.01      0.01      0.01      2.00         0.01
  WS02006235WS02006234        0.01      0.01      0.01      5.65         0.01
  WS02006231WS02006230        0.01      0.01      0.01      5.62         0.01
  WS02006230WS02006229        1.18      1.82      1.18      5.68         1.18
  WS02006228WS02006109        0.48      0.79      0.48      2.38         0.48
  WS02006111WS02006112        0.01      0.01      2.07      0.01         0.01
  WS02006110WS02006113        0.01      0.01      0.64      0.01         0.01
  WS02006109WS02006110        0.01      0.01      0.79      0.01         0.01
  WS02004404WS02004405        0.01      0.01      0.01      5.59         0.01
  WS02003072WS02003073        0.01      0.01      0.01      1.95         0.01
  YS02001759YS02001757        4.93      4.93      5.23      0.01         0.01
  YS02001762YS02001759        4.02      4.02      4.93      0.01         0.01
  YS02001765YS02001762        3.82      3.82      4.02      0.01         0.01
  YS02001770YS02001767        3.68      3.69      3.71      0.01         0.32
  YS02001774YS02001770        3.56      3.56      3.93      0.01         0.01
  YS02001779YS02001774        2.20      2.20      3.93      0.01         0.01
  YS02001649YS02001757        4.17      4.17      5.23      0.01         0.01
  YS02001767YS02001765        3.71      3.71      3.82      0.01         0.01
  YS02001791YS02001793        0.01      0.01      0.30      0.01         0.01
  YS02001629YS02163301        3.12      3.12      3.59      0.01         0.01
  YS02001619YS02001622        0.69      0.69      0.88      0.01         0.01
  YS02001622YS02001625        0.88      0.88      2.66      0.01         0.01
  YS02001625YS02001629        0.70      0.70      2.66      0.01         0.01
  YS02163301YS02001633        3.59      3.59      3.85      0.01         0.01
  YS02163601YS02164001        3.80      3.80      4.05      0.01         0.01
  YS02164001YS02001641        3.80      3.80      3.86      0.01         0.01
  YS02001641YS02001644        3.85      3.86      3.87      0.01         0.25
  YS02001647YS02001649        2.63      2.63      4.17      0.01         0.01
  YS02001633YS02163601        3.75      3.75      4.05      0.01         0.01
  YS02001644YS02001647        2.63      2.63      3.87      0.01         0.01
  YS02001748YS02001751        0.01      0.01      1.07      0.01         0.01
  YS02001751YS02001754        1.07      1.07      2.37      0.01         0.01
  YS02001754YS02001757        2.64      2.64      5.23      0.01         0.01
  YS02001652YS02001649        2.69      2.69      4.17      0.01         0.01
  YS02001655YS02001652        1.25      1.25      2.53      0.01         0.01
  YS02001658YS02001655        0.01      0.01      1.25      0.01         0.01
  YS02001793JiankangQianchi        0.06      0.06      1.20      0.01         0.01
  YS02001757CaochengTiaoxuchi        0.07      0.07      5.23      0.01         0.01
  3                           0.01      0.01      0.01      0.01         0.01
  
  
  ***************
  Pumping Summary
  ***************
  
  ---------------------------------------------------------------------------------------------------------
                                                  Min       Avg       Max     Total     Power    % Time Off
                        Percent   Number of      Flow      Flow      Flow    Volume     Usage    Pump Curve
  Pump                 Utilized   Start-Ups       LPS       LPS       LPS  10^6 ltr     Kw-hr    Low   High
  ---------------------------------------------------------------------------------------------------------
  CC-Pump-1               29.94           2      0.00    175.52    200.00     1.474      5.24    0.0   53.7
  CC-Pump-2                0.00           0      0.00      0.00      0.00     0.000      0.00    0.0    0.0
  JK-Pump-1               87.24           3      0.00    115.34    300.00     1.818     32.35    0.0    0.0
  JK-Pump-2               89.36           3      0.00    147.14    300.00     2.303     36.16    0.0    0.0
  XR-Pump-1               17.01           2      0.00     72.31     95.00     0.342      4.97    0.0    0.0
  XR-Pump-2               44.68           3      0.00     77.77     95.00     1.055     16.23    0.0    0.0
  XR-Pump-3               87.23           4      0.00     85.22     95.00     2.166     23.56    0.0    0.0
  XR-Pump-4               91.48           3      0.00     86.02     95.00     2.280     25.48    0.0    0.0
  

  Analysis begun on:  Tue Dec 21 17:20:08 2021
  Analysis ended on:  Tue Dec 21 17:20:11 2021
  Total elapsed time: 00:00:03