
  EPA STORM WATER MANAGEMENT MODEL - VERSION 5.1 (Build 5.3.0.dev0)
  --------------------------------------------------------------

  WARNING 04: minimum elevation drop used for Conduit WS02004404WS02004405
  WARNING 03: negative offset ignored for Link YS02001904YS02001907
  
  *********************************************************
  NOTE: The summary statistics displayed in this report are
  based on results found at every computational time step,  
  not just on results from each reporting time step.
  *********************************************************
  
  ****************
  Analysis Options
  ****************
  Flow Units ............... LPS
  Process Models:
    Rainfall/Runoff ........ YES
    RDII ................... NO
    Snowmelt ............... NO
    Groundwater ............ NO
    Flow Routing ........... YES
    Ponding Allowed ........ NO
    Water Quality .......... NO
  Infiltration Method ...... HORTON
  Flow Routing Method ...... DYNWAVE
  Surcharge Method ......... EXTRAN
  Starting Date ............ 08/28/2015 08:00:00
  Ending Date .............. 08/28/2015 15:50:00
  Antecedent Dry Days ...... 8.0
  Report Time Step ......... 00:01:00
  Wet Time Step ............ 00:01:00
  Dry Time Step ............ 00:01:00
  Routing Time Step ........ 5.00 sec
  Variable Time Step ....... YES
  Maximum Trials ........... 8
  Number of Threads ........ 4
  Head Tolerance ........... 0.001500 m
  
  
  **************************        Volume         Depth
  Runoff Quantity Continuity     hectare-m            mm
  **************************     ---------       -------
  Total Precipitation ......         2.592         5.674
  Evaporation Loss .........         0.000         0.000
  Infiltration Loss ........         0.650         1.423
  Surface Runoff ...........         1.068         2.339
  Final Storage ............         0.874         1.914
  Continuity Error (%) .....        -0.018
  
  
  **************************        Volume        Volume
  Flow Routing Continuity        hectare-m      10^6 ltr
  **************************     ---------     ---------
  Dry Weather Inflow .......         0.616         6.165
  Wet Weather Inflow .......         1.067        10.674
  Groundwater Inflow .......         0.000         0.000
  RDII Inflow ..............         0.000         0.000
  External Inflow ..........         0.102         1.024
  External Outflow .........         1.351        13.506
  Flooding Loss ............         0.062         0.619
  Evaporation Loss .........         0.000         0.000
  Exfiltration Loss ........         0.000         0.000
  Initial Stored Volume ....         0.076         0.761
  Final Stored Volume ......         0.563         5.632
  Continuity Error (%) .....        -6.089
  
  
  *************************
  Highest Continuity Errors
  *************************
  Node JK-storage (-35.58%)
  Node HS02004842 (29.33%)
  Node YS02001884 (23.62%)
  Node YS02001774 (13.20%)
  Node YSB1171 (7.30%)
  
  
  ***************************
  Time-Step Critical Elements
  ***************************
  Link WS02006252WS02006251 (44.70%)
  Link 3 (43.97%)
  Link YS02001793JiankangQianchi (3.63%)
  Link WS02006280WS02006229 (2.40%)
  
  
  ********************************
  Highest Flow Instability Indexes
  ********************************
  Link WS02006113WS02006111 (56)
  Link WS02006111WS02006112 (21)
  Link YS02164001YS02001641 (9)
  Link YS02001629YS02163301 (9)
  Link YS02001641YS02001644 (8)
  
  
  *************************
  Routing Time Step Summary
  *************************
  Minimum Time Step           :     0.50 sec
  Average Time Step           :     1.15 sec
  Maximum Time Step           :     5.00 sec
  Percent in Steady State     :    -0.00
  Average Iterations per Step :     2.79
  Percent Not Converging      :     8.67
  
  
  ***************************
  Subcatchment Runoff Summary
  ***************************
  
  ------------------------------------------------------------------------------------------------------------------------------
                            Total      Total      Total      Total     Imperv       Perv      Total       Total     Peak  Runoff
                           Precip      Runon       Evap      Infil     Runoff     Runoff     Runoff      Runoff   Runoff   Coeff
  Subcatchment                 mm         mm         mm         mm         mm         mm         mm    10^6 ltr      LPS
  ------------------------------------------------------------------------------------------------------------------------------
  sub0                       5.67       0.00       0.00       0.40       4.01       0.00       4.01        0.00     1.40   0.707
  sub1                       5.67       0.00       0.00       0.62       3.80       0.00       3.80        0.03     7.20   0.669
  sub2                       5.67       0.00       0.00       2.10       2.67       0.00       2.67        0.02     6.34   0.470
  sub3                       5.67       0.00       0.00       2.10       2.64       0.00       2.64        0.06    12.98   0.464
  sub4                       5.67       0.00       0.00       0.62       3.66       0.00       3.66        0.08    14.49   0.645
  sub5                       5.67       0.00       0.00       0.40       3.97       0.00       3.97        0.04    12.81   0.699
  sub7                       5.67       0.00       0.00       0.51       3.91       0.00       3.91        0.01     4.56   0.689
  sub8                       5.67       0.00       0.00       0.51       3.90       0.00       3.90        0.02     8.01   0.687
  sub9                       5.67       0.00       0.00       0.51       3.90       0.00       3.90        0.02     5.94   0.687
  sub10                      5.67       0.00       0.00       0.45       3.93       0.00       3.93        0.04    12.81   0.693
  sub11                      5.67       0.00       0.00       0.45       3.95       0.00       3.95        0.05    15.10   0.695
  sub12                      5.67       0.00       0.00       0.74       3.75       0.00       3.75        0.03    12.89   0.661
  sub14                      5.67       0.00       0.00       0.51       3.90       0.00       3.90        0.04    11.60   0.687
  sub15                      5.67       0.00       0.00       1.70       2.99       0.00       2.99        0.05    15.72   0.528
  sub16                      5.67       0.00       0.00       1.87       2.88       0.00       2.88        0.03    11.30   0.508
  sub17                      5.67       0.00       0.00       1.82       2.92       0.00       2.92        0.03     9.11   0.515
  sub22                      5.67       0.00       0.00       2.44       2.45       0.00       2.45        0.15    51.67   0.431
  sub23                      5.67       0.00       0.00       2.10       2.71       0.00       2.71        0.13    44.04   0.477
  sub60                      5.67       0.00       0.00       0.68       2.60       0.00       2.60        0.79    71.62   0.458
  sub61                      5.67       0.00       0.00       0.96       2.79       0.00       2.79        0.86    90.46   0.491
  sub62                      5.67       0.00       0.00       0.45       2.99       0.00       2.99        0.92    92.26   0.526
  sub63                      5.67       0.00       0.00       1.65       2.49       0.00       2.49        0.75    84.67   0.438
  sub64                      5.67       0.00       0.00       0.85       2.48       0.00       2.48        0.75    68.00   0.437
  sub65                      5.67       0.00       0.00       0.74       2.51       0.00       2.51        0.77    68.98   0.443
  sub66                      5.67       0.00       0.00       1.65       2.17       0.00       2.17        0.66    62.44   0.382
  sub67                      5.67       0.00       0.00       0.45       3.30       0.00       3.30        1.02   119.23   0.581
  sub68                      5.67       0.00       0.00       0.79       2.97       0.00       2.97        0.91   100.20   0.523
  sub69                      5.67       0.00       0.00       0.85       3.22       0.00       3.22        0.75   100.31   0.567
  sub70                      5.67       3.28       0.00       3.05       3.92       0.00       3.92        0.90    79.28   0.438
  sub71                      5.67       0.00       0.00       0.45       2.85       0.00       2.85        0.67    64.24   0.503
  sub72                      5.67       0.00       0.00       0.40       2.00       0.00       2.00        0.41    30.10   0.352
  sub73                      5.67       3.81       0.00       3.23       3.97       0.00       3.97        0.93    67.93   0.418
  sub74                      5.67       0.00       0.00       4.26       0.97       0.00       0.97        0.39    56.14   0.171
  
  
  ******************
  Node Depth Summary
  ******************
  
  ---------------------------------------------------------------------------------
                                 Average  Maximum  Maximum  Time of Max    Reported
                                   Depth    Depth      HGL   Occurrence   Max Depth
  Node                 Type       Meters   Meters   Meters  days hr:min      Meters
  ---------------------------------------------------------------------------------
  WS02001211           JUNCTION     0.62     0.71     5.55     0  03:21        0.71
  WS02001212           JUNCTION     0.35     0.43     5.49     0  03:20        0.43
  WS02001213           JUNCTION     0.57     0.67     5.43     0  03:19        0.67
  WS02003069           JUNCTION     0.39     0.50     5.09     0  02:38        0.50
  WS02003072           JUNCTION     0.45     0.57     4.94     0  02:38        0.57
  WS02003073           JUNCTION     0.27     0.34     4.41     0  02:39        0.34
  WS02003060           JUNCTION     0.35     0.44     5.38     0  02:37        0.44
  WS02003066           JUNCTION     0.21     0.28     5.84     0  02:40        0.28
  WS02003059           JUNCTION     0.63     0.73     5.42     0  03:19        0.73
  WS02003067           JUNCTION     0.52     0.68     6.00     0  02:40        0.68
  WS02004401           JUNCTION     0.60     0.81     6.81     0  02:37        0.81
  WS02004402           JUNCTION     0.64     0.83     6.79     0  02:37        0.83
  WS02004403           JUNCTION     0.66     0.85     6.78     0  02:37        0.85
  WS02004404           JUNCTION     0.74     0.93     6.78     0  02:37        0.93
  WS02004406           JUNCTION     0.75     0.92     6.75     0  02:37        0.92
  WS02004409           JUNCTION     0.42     0.62     6.39     0  02:39        0.62
  WS02004410           JUNCTION     0.44     0.64     6.36     0  02:40        0.64
  WS02004411           JUNCTION     0.46     0.65     6.33     0  02:40        0.65
  WS02004412           JUNCTION     0.48     0.66     6.30     0  02:40        0.66
  WS02004413           JUNCTION     0.63     0.82     6.29     0  02:40        0.82
  WS02004405           JUNCTION     0.73     0.92     6.77     0  02:37        0.92
  WS02006109           JUNCTION     0.67     0.90     7.52     0  02:33        0.90
  WS02006110           JUNCTION     0.68     0.88     7.46     0  02:33        0.88
  WS02006111           JUNCTION     0.19     0.27     6.98     0  02:33        0.27
  WS02006112           JUNCTION     0.76     0.99     6.87     0  02:36        0.99
  WS02006113           JUNCTION     0.29     0.43     7.32     0  02:33        0.43
  WS02006115           JUNCTION     0.49     0.70     6.84     0  02:36        0.70
  WS02006116           JUNCTION     0.58     0.78     6.82     0  02:37        0.78
  WS02006230           JUNCTION     0.61     0.92     7.66     0  02:33        0.92
  WS02006231           JUNCTION     0.40     0.59     7.71     0  02:34        0.59
  WS02006232           JUNCTION     0.53     0.72     7.76     0  02:34        0.72
  WS02006234           JUNCTION     0.43     0.64     7.79     0  02:34        0.64
  WS02006235           JUNCTION     0.46     0.66     7.83     0  02:34        0.66
  WS02006238           JUNCTION     0.48     0.69     7.83     0  02:34        0.69
  WS02006240           JUNCTION     0.36     0.58     7.87     0  02:35        0.58
  WS02006242           JUNCTION     0.40     0.63     7.90     0  02:35        0.63
  WS02006243           JUNCTION     0.27     0.50     7.92     0  02:36        0.50
  WS02006245           JUNCTION     0.24     0.47     7.96     0  02:36        0.47
  WS02006247           JUNCTION     0.25     0.49     7.99     0  02:36        0.49
  WS02006248           JUNCTION     0.21     0.42     8.01     0  02:36        0.42
  WS02006249           JUNCTION     0.24     0.45     8.05     0  02:37        0.45
  WS02006239           JUNCTION     0.43     0.64     7.85     0  02:35        0.64
  WS02006251           JUNCTION     0.22     0.44     8.11     0  02:36        0.44
  WS02006252           JUNCTION     0.20     0.35     8.59     0  02:23        0.35
  WS02006253           JUNCTION     0.25     0.46     8.11     0  02:36        0.46
  WS02006256           JUNCTION     1.01     2.35     9.28     0  00:00        1.20
  WS02004138           JUNCTION     0.14     0.17     7.42     0  00:00        0.17
  WS02004407           JUNCTION     0.19     0.28     6.59     0  02:37        0.28
  WS02006228           JUNCTION     0.66     0.93     7.58     0  02:33        0.93
  WS02006229           JUNCTION     0.63     0.92     7.61     0  02:33        0.92
  WS02006280           JUNCTION     0.06     0.14     8.41     0  02:18        0.14
  WS02006284           JUNCTION     0.35     0.48     8.88     0  02:18        0.48
  WS02006287           JUNCTION     0.08     0.21     9.16     0  02:18        0.21
  WSF200               JUNCTION     0.19     0.29     5.52     0  02:39        0.29
  HS02004901           JUNCTION     0.11     0.23    10.05     0  02:15        0.23
  HS02004881           JUNCTION     0.01     0.02     9.05     0  02:17        0.02
  HS02004876           JUNCTION     0.04     0.10     9.13     0  02:16        0.10
  HS02004870           JUNCTION     0.01     0.04     9.33     0  02:18        0.04
  HS02004862           JUNCTION     0.01     0.05     9.43     0  02:19        0.05
  HS02004856           JUNCTION     0.07     0.10     9.53     0  02:18        0.10
  HS02004852           JUNCTION     0.01     0.03     9.54     0  02:19        0.03
  HS02004848           JUNCTION     0.01     0.03     9.63     0  02:17        0.03
  HS02004842           JUNCTION     0.33     0.36     9.63     0  02:17        0.36
  HS02004837           JUNCTION     0.03     0.05     9.63     0  02:17        0.05
  HS02004830           JUNCTION     0.04     0.06     9.53     0  02:18        0.06
  HS02004824           JUNCTION     0.02     0.04     9.44     0  02:21        0.04
  HS02004817           JUNCTION     0.42     0.52     9.37     0  02:18        0.52
  HS02004807           JUNCTION     0.11     0.20     9.37     0  02:18        0.20
  HS02004802           JUNCTION     0.15     0.23     9.36     0  02:18        0.23
  HS02004799           JUNCTION     0.10     0.25     9.46     0  02:16        0.25
  HS02004792           JUNCTION     0.03     0.10     9.62     0  02:15        0.10
  HS02004788           JUNCTION     0.02     0.07     9.97     0  02:17        0.07
  HS02004785           JUNCTION     0.04     0.13    10.03     0  02:16        0.13
  HS02004777           JUNCTION     0.14     0.25    10.05     0  02:16        0.25
  HS02004770           JUNCTION     0.11     0.22    10.05     0  02:16        0.22
  HS02004480           JUNCTION     0.07     0.20     9.44     0  02:17        0.20
  HS02004479           JUNCTION     0.10     0.23     9.44     0  02:16        0.23
  HS02004478           JUNCTION     0.05     0.12     9.35     0  02:18        0.12
  YS02001745           JUNCTION     0.17     0.60     8.12     0  07:50        0.60
  YS02001748           JUNCTION     0.47     1.04     8.12     0  07:50        1.04
  YS02001751           JUNCTION     0.65     1.24     8.12     0  07:50        1.24
  YS02001754           JUNCTION     0.89     1.51     8.12     0  07:50        1.51
  YS02001762           JUNCTION     1.09     1.72     8.12     0  07:50        1.72
  YS02001765           JUNCTION     1.04     1.67     8.12     0  07:50        1.67
  YS02001767           JUNCTION     1.00     1.63     8.12     0  07:50        1.63
  YS02001770           JUNCTION     1.00     1.62     8.12     0  07:50        1.62
  YS02001774           JUNCTION     1.07     1.69     8.12     0  07:50        1.69
  YS02001779           JUNCTION     0.82     1.43     8.12     0  07:50        1.43
  YS02001882           JUNCTION     0.29     0.44     7.16     0  02:52        0.44
  YS02001884           JUNCTION     0.39     0.54     7.16     0  02:51        0.54
  YS02001759           JUNCTION     1.12     1.75     8.12     0  07:50        1.75
  YS02001887           JUNCTION     0.46     0.62     7.16     0  02:51        0.62
  YS02001890           JUNCTION     0.49     0.65     7.16     0  02:52        0.65
  YS02001898           JUNCTION     0.26     0.41     7.14     0  02:52        0.41
  YS02001901           JUNCTION     0.38     0.53     7.14     0  02:53        0.53
  YS02001904           JUNCTION     0.36     0.51     7.14     0  02:53        0.51
  YS02001907           JUNCTION     0.69     0.85     7.14     0  02:52        0.85
  YS02001910           JUNCTION     0.48     0.63     7.14     0  02:52        0.63
  YS02001915           JUNCTION     0.28     0.42     7.14     0  02:52        0.42
  YS02001918           JUNCTION     0.08     0.09     7.16     0  03:03        0.09
  YS02001619           JUNCTION     0.61     1.19     8.12     0  07:50        1.19
  YS02001629           JUNCTION     0.95     1.57     8.12     0  07:50        1.57
  YS02001641           JUNCTION     1.05     1.68     8.12     0  07:50        1.68
  YS02001644           JUNCTION     1.06     1.68     8.12     0  07:50        1.68
  YS02001652           JUNCTION     0.90     1.52     8.12     0  07:50        1.52
  YS02001655           JUNCTION     0.67     1.27     8.12     0  07:50        1.27
  YS02001920           JUNCTION     0.17     0.20     7.21     0  03:02        0.20
  YS02001923           JUNCTION     0.06     0.08     7.34     0  03:02        0.08
  YS02001926           JUNCTION     0.14     0.17     7.62     0  03:01        0.17
  YS02001929           JUNCTION     0.07     0.08     7.78     0  03:01        0.08
  YS02001658           JUNCTION     0.42     0.97     8.12     0  07:50        0.97
  YS02001661           JUNCTION     0.25     0.71     8.12     0  07:50        0.71
  YS02001664           JUNCTION     0.08     0.19     8.12     0  07:50        0.19
  YS02001622           JUNCTION     0.63     1.21     8.12     0  07:50        1.21
  YS02001633           JUNCTION     1.04     1.66     8.12     0  07:50        1.66
  YS02001649           JUNCTION     1.09     1.73     8.12     0  07:50        1.73
  YS02001757           JUNCTION     1.22     1.86     8.12     0  07:50        1.86
  YS02001895           JUNCTION     0.26     0.40     7.15     0  02:53        0.40
  YS02001625           JUNCTION     0.90     1.51     8.12     0  07:50        1.51
  YS02163301           JUNCTION     0.98     1.60     8.12     0  07:50        1.60
  YS02163601           JUNCTION     1.09     1.72     8.12     0  07:50        1.72
  YS02164001           JUNCTION     1.03     1.66     8.12     0  07:50        1.66
  YS02001647           JUNCTION     0.89     1.51     8.12     0  07:50        1.51
  YSB1154              JUNCTION     0.24     0.38     9.44     0  02:16        0.38
  YSB6556              JUNCTION     0.14     0.27     9.44     0  02:17        0.27
  YSB1174              JUNCTION     0.19     0.33     9.44     0  02:16        0.33
  YSB1171              JUNCTION     0.39     0.53     9.44     0  02:16        0.53
  YS02006553           JUNCTION     0.69     0.85     7.14     0  02:52        0.85
  YS02006561           JUNCTION     0.14     0.22     6.88     0  02:53        0.22
  YS02006556           JUNCTION     0.66     0.82     7.14     0  02:53        0.82
  YS02006558           JUNCTION     0.71     0.87     7.13     0  02:53        0.87
  YS02001783           JUNCTION     0.25     0.41     6.56     0  03:02        0.41
  YS02001784           JUNCTION     0.29     0.46     6.53     0  03:01        0.46
  YS02001786           JUNCTION     0.25     0.45     6.48     0  03:01        0.44
  YS02001788           JUNCTION     0.19     0.44     6.42     0  03:09        0.44
  YS02001790           JUNCTION     0.26     1.65     7.29     0  03:02        1.06
  YS02001791           JUNCTION     0.23     1.59     7.06     0  02:56        1.04
  YS02001793           JUNCTION     0.33     1.78     6.61     0  02:56        1.60
  WS02004139           JUNCTION     0.56     0.65     5.56     0  03:21        0.65
  WSC                  OUTFALL      0.27     0.34     1.01     0  02:39        0.34
  3                    OUTFALL      0.07     0.23     6.23     0  00:00        0.19
  4                    OUTFALL      0.00     0.00     7.00     0  00:00        0.00
  5                    OUTFALL      0.00     0.00     5.00     0  00:00        0.00
  JK-storage           STORAGE      1.51     5.59     6.39     0  03:09        5.59
  CC-storage           STORAGE      0.47     1.12     8.12     0  07:50        1.12
  XR-storage           STORAGE      5.71     7.72     5.72     0  04:50        7.72
  
  
  *******************
  Node Inflow Summary
  *******************
  
  -------------------------------------------------------------------------------------------------
                                  Maximum  Maximum                  Lateral       Total        Flow
                                  Lateral    Total  Time of Max      Inflow      Inflow     Balance
                                   Inflow   Inflow   Occurrence      Volume      Volume       Error
  Node                 Type           LPS      LPS  days hr:min    10^6 ltr    10^6 ltr     Percent
  -------------------------------------------------------------------------------------------------
  WS02001211           JUNCTION      7.35   292.85     0  03:29       0.207        6.19       0.469
  WS02001212           JUNCTION      0.00   293.07     0  03:28           0        6.16       0.254
  WS02001213           JUNCTION      0.00   293.28     0  03:28           0        6.15       0.314
  WS02003069           JUNCTION      0.32   726.98     0  02:37     0.00902        11.6       0.173
  WS02003072           JUNCTION      0.00   726.89     0  02:38           0        11.6       0.231
  WS02003073           JUNCTION      1.82   728.70     0  02:39      0.0514        11.6       0.244
  WS02003060           JUNCTION     16.53   726.65     0  02:37       0.466        11.6       0.167
  WS02003066           JUNCTION      0.00   476.85     0  02:41           0        5.05       0.058
  WS02003059           JUNCTION      0.00   293.66     0  03:27           0        6.13       0.492
  WS02003067           JUNCTION      0.00   476.82     0  02:40           0        5.06       0.133
  WS02004401           JUNCTION      0.00   480.25     0  02:36           0        5.23       0.301
  WS02004402           JUNCTION      0.00   479.81     0  02:36           0        5.21       0.294
  WS02004403           JUNCTION      0.00   479.58     0  02:36           0         5.2       0.275
  WS02004404           JUNCTION      0.16   479.62     0  02:37     0.00457        5.19       0.215
  WS02004406           JUNCTION      0.00   479.59     0  02:37           0        5.16       0.528
  WS02004409           JUNCTION      0.00   479.54     0  02:37           0        5.13       0.184
  WS02004410           JUNCTION      0.00   478.45     0  02:38           0        5.12       0.222
  WS02004411           JUNCTION      0.00   477.66     0  02:39           0        5.11       0.239
  WS02004412           JUNCTION      0.00   477.19     0  02:39           0        5.09       0.276
  WS02004413           JUNCTION      0.00   476.92     0  02:40           0        5.08       0.434
  WS02004405           JUNCTION      0.04   479.62     0  02:37     0.00107        5.18       0.327
  WS02006109           JUNCTION      1.23   479.19     0  02:33      0.0347        5.29       0.331
  WS02006110           JUNCTION      0.00   479.19     0  02:33           0        5.27       0.273
  WS02006111           JUNCTION      0.00   494.22     0  02:33           0        5.25       0.047
  WS02006112           JUNCTION      9.11   485.97     0  02:33      0.0251        5.27       0.412
  WS02006113           JUNCTION      0.00   479.29     0  02:33           0        5.26       0.108
  WS02006115           JUNCTION      0.00   482.78     0  02:34           0        5.25       0.251
  WS02006116           JUNCTION      0.00   481.11     0  02:35           0        5.24       0.254
  WS02006230           JUNCTION     10.28   328.69     0  03:12        0.29        4.41       0.276
  WS02006231           JUNCTION      0.00   317.85     0  03:11           0        4.13       0.065
  WS02006232           JUNCTION      0.00   317.60     0  03:11           0        4.14       0.279
  WS02006234           JUNCTION      0.00   317.29     0  03:11           0        4.14       0.068
  WS02006235           JUNCTION      0.00   317.15     0  03:10           0        4.18       0.188
  WS02006238           JUNCTION      0.00   262.49     0  02:40           0        1.79       0.232
  WS02006240           JUNCTION      0.00   248.80     0  02:41           0        1.77       0.234
  WS02006242           JUNCTION      0.00   242.61     0  02:41           0        1.77       0.268
  WS02006243           JUNCTION      0.00   236.17     0  02:41           0        1.76      -0.214
  WS02006245           JUNCTION      0.00   233.02     0  02:42           0        1.76       0.136
  WS02006247           JUNCTION      0.00   231.81     0  02:28           0        1.76      -0.002
  WS02006248           JUNCTION      0.00   232.87     0  02:27           0        1.76      -0.082
  WS02006249           JUNCTION      0.00   234.14     0  02:26           0        1.76       0.139
  WS02006239           JUNCTION      0.00   255.98     0  02:40           0        1.78       0.291
  WS02006251           JUNCTION      0.08   235.31     0  02:25     0.00217        1.76      -0.008
  WS02006252           JUNCTION      0.00   200.00     0  02:23           0        1.62       0.004
  WS02006253           JUNCTION      1.40    39.90     0  02:17     0.00325       0.144      -0.174
  WS02006256           JUNCTION      0.00   600.00     0  00:00           0        4.34       0.047
  WS02004138           JUNCTION      0.00   285.00     0  00:00           0        6.01       0.072
  WS02004407           JUNCTION      0.00   479.57     0  02:37           0        5.13       0.086
  WS02006228           JUNCTION      0.00   477.95     0  02:33           0        5.27       0.220
  WS02006229           JUNCTION      0.00   477.95     0  02:32           0        5.27       0.171
  WS02006280           JUNCTION      0.00   205.35     0  02:18           0       0.872       0.008
  WS02006284           JUNCTION      0.10   205.34     0  02:18      0.0027       0.874       0.122
  WS02006287           JUNCTION      0.00   205.22     0  02:18           0       0.872       0.083
  WSF200               JUNCTION      0.00   476.86     0  02:41           0        5.05       0.045
  HS02004901           JUNCTION     11.30    11.30     0  02:10      0.0302      0.0303       6.151
  HS02004881           JUNCTION      4.56    38.84     0  02:17      0.0132       0.138       0.210
  HS02004876           JUNCTION      7.20    34.61     0  02:17      0.0252       0.126       0.420
  HS02004870           JUNCTION      8.01    27.57     0  02:17      0.0249         0.1       0.106
  HS02004862           JUNCTION      6.54    20.11     0  02:18      0.0305      0.0757       0.223
  HS02004856           JUNCTION      5.94    13.62     0  02:17      0.0187      0.0467       3.177
  HS02004852           JUNCTION      0.00     8.08     0  02:17           0       0.028       0.180
  HS02004848           JUNCTION     12.98    12.98     0  02:20      0.0593      0.0593       0.073
  HS02004842           JUNCTION      0.00     5.36     0  02:30           0      0.0443      41.498
  HS02004837           JUNCTION     19.16    23.70     0  02:17       0.222       0.254       0.322
  HS02004830           JUNCTION      0.15    23.84     0  02:17     0.00423       0.244       0.507
  HS02004824           JUNCTION     14.54    38.20     0  02:20      0.0777       0.321       0.168
  HS02004817           JUNCTION      0.60    38.80     0  02:21      0.0169       0.337       5.203
  HS02004807           JUNCTION     15.10    52.50     0  02:19      0.0458       0.366       1.168
  HS02004802           JUNCTION      0.00    52.78     0  02:20           0       0.362       1.134
  HS02004799           JUNCTION     11.60   130.21     0  02:15      0.0371       0.451       0.506
  HS02004792           JUNCTION     51.95   118.89     0  02:15       0.162       0.414       0.099
  HS02004788           JUNCTION     17.39    69.24     0  02:16      0.0986       0.253       0.153
  HS02004785           JUNCTION      0.15    52.30     0  02:15     0.00423       0.156       0.309
  HS02004777           JUNCTION      0.03    52.59     0  02:14    0.000846       0.157       3.415
  HS02004770           JUNCTION     44.04    53.94     0  02:12       0.129       0.157       2.005
  HS02004480           JUNCTION      0.00   153.44     0  02:17           0       0.526       0.138
  HS02004479           JUNCTION      0.00    23.78     0  02:18           0      0.0871       0.844
  HS02004478           JUNCTION      0.00   205.21     0  02:18           0       0.872       0.072
  YS02001745           JUNCTION     71.63    71.63     0  03:00       0.787       0.805       1.063
  YS02001748           JUNCTION      0.04   119.13     0  05:28     0.00127       0.822       2.825
  YS02001751           JUNCTION      0.01   143.43     0  03:00     0.00031       0.783       3.147
  YS02001754           JUNCTION      0.26    95.06     0  02:38     0.00733       0.743       3.474
  YS02001762           JUNCTION      0.00   134.31     0  03:08           0       0.848       2.459
  YS02001765           JUNCTION      0.00   120.58     0  03:02           0       0.849       2.768
  YS02001767           JUNCTION      0.54   145.82     0  03:06      0.0151       0.871       4.305
  YS02001770           JUNCTION     92.41   151.47     0  03:06       0.922           1       3.253
  YS02001774           JUNCTION      0.00    86.21     0  03:35           0        0.19      15.202
  YS02001779           JUNCTION      0.01    72.73     0  03:32    0.000141      0.0867      20.834
  YS02001882           JUNCTION      0.00     4.01     0  02:10           0      0.0051      47.853
  YS02001884           JUNCTION      0.00    11.60     0  02:07           0      0.0204      30.923
  YS02001759           JUNCTION     90.50   216.94     0  03:01       0.861        1.67       1.374
  YS02001887           JUNCTION    119.68   119.68     0  02:41        1.03        1.04       0.688
  YS02001890           JUNCTION      0.00   118.97     0  02:44           0        1.02       0.772
  YS02001898           JUNCTION      0.00   118.41     0  02:47           0           1       0.214
  YS02001901           JUNCTION      0.00   118.31     0  02:46           0           1       0.547
  YS02001904           JUNCTION      0.00   117.74     0  02:48           0           1       0.509
  YS02001907           JUNCTION      0.00   213.59     0  02:54           0        2.15       1.034
  YS02001910           JUNCTION      0.00    97.50     0  03:00           0        1.15       0.882
  YS02001915           JUNCTION     64.26    96.85     0  03:00       0.674        1.16       0.389
  YS02001918           JUNCTION      0.00    32.96     0  03:02           0       0.485       0.227
  YS02001619           JUNCTION     62.44    62.44     0  02:56       0.664       0.666       1.873
  YS02001629           JUNCTION      0.00   101.70     0  03:03           0       0.611       5.053
  YS02001641           JUNCTION      0.00   151.15     0  02:56           0        1.26       1.709
  YS02001644           JUNCTION     68.04   214.72     0  02:57       0.755        1.98       1.318
  YS02001652           JUNCTION      0.00   113.99     0  02:59           0       0.696       3.428
  YS02001655           JUNCTION      0.15   147.69     0  02:58     0.00434       0.746       3.431
  YS02001920           JUNCTION      2.87    32.98     0  03:02      0.0809       0.487       0.413
  YS02001923           JUNCTION      0.04    30.12     0  03:01     0.00106       0.406       0.073
  YS02001926           JUNCTION      0.05    30.14     0  03:01     0.00147       0.407       0.518
  YS02001929           JUNCTION     30.10    30.10     0  03:01       0.406       0.406       0.070
  YS02001658           JUNCTION      0.00   125.53     0  05:34           0       0.822       2.891
  YS02001661           JUNCTION      0.00    89.61     0  05:21           0        0.81       2.057
  YS02001664           JUNCTION     84.67    84.67     0  02:44       0.753       0.753       0.251
  YS02001622           JUNCTION      0.00    86.56     0  03:01           0       0.681       4.875
  YS02001633           JUNCTION     69.18   144.53     0  02:48       0.778        1.31       2.543
  YS02001649           JUNCTION      0.00   328.62     0  02:43           0        2.58       1.475
  YS02001757           JUNCTION      0.00   533.02     0  03:03           0        4.88       1.934
  YS02001895           JUNCTION      0.00   118.53     0  02:44           0        1.01       0.367
  YS02001625           JUNCTION      0.00    91.51     0  03:01           0       0.675       6.155
  YS02163301           JUNCTION      0.00    94.32     0  03:00           0       0.564       4.517
  YS02163601           JUNCTION      0.11   157.46     0  03:02      0.0031        1.28       2.422
  YS02164001           JUNCTION      0.00   156.70     0  03:02           0        1.26       1.669
  YS02001647           JUNCTION      0.00   212.17     0  03:01           0        1.94       1.453
  YSB1154              JUNCTION     12.81    12.81     0  02:14      0.0449      0.0463       3.221
  YSB6556              JUNCTION      0.00    12.76     0  02:16           0      0.0473       2.706
  YSB1174              JUNCTION     12.89    12.89     0  02:09      0.0327      0.0338       3.949
  YSB1171              JUNCTION      0.00    23.72     0  02:15           0      0.0866       7.872
  YS02006553           JUNCTION      0.00   213.65     0  02:56           0        2.14       0.671
  YS02006561           JUNCTION      0.00   313.59     0  02:53           0        3.02       0.021
  YS02006556           JUNCTION      0.00   213.73     0  02:56           0        2.14       0.484
  YS02006558           JUNCTION    101.08   313.61     0  02:53       0.938        3.05       0.148
  YS02001783           JUNCTION      0.00   313.59     0  02:53           0        3.02       0.050
  YS02001784           JUNCTION      1.06   315.60     0  03:00      0.0299        3.05       0.082
  YS02001786           JUNCTION      0.06   319.66     0  03:00     0.00159        3.05       0.084
  YS02001788           JUNCTION      0.07   351.60     0  03:00       0.002        3.05       0.042
  YS02001790           JUNCTION      0.15   422.51     0  03:20     0.00437        3.05       0.060
  YS02001791           JUNCTION      0.00   393.50     0  02:55           0        3.05       0.021
  YS02001793           JUNCTION      0.00   451.46     0  02:52           0        3.05       0.011
  WS02004139           JUNCTION      0.32   290.33     0  00:00     0.00905        6.02       0.543
  WSC                  OUTFALL       0.00   728.67     0  02:39           0        11.6       0.000
  3                    OUTFALL       0.00   597.65     0  00:00           0        1.93       0.000
  4                    OUTFALL       0.00     0.00     0  00:00           0           0       0.000 ltr
  5                    OUTFALL       0.00     0.00     0  00:00           0           0       0.000 ltr
  JK-storage           STORAGE       0.00   632.37     0  03:50           0         3.2     -26.241
  CC-storage           STORAGE       0.00   527.91     0  03:03           0        4.78       1.236
  XR-storage           STORAGE     316.43   316.43     0  02:51        6.96        7.56      -0.000
  
  
  **********************
  Node Surcharge Summary
  **********************
  
  Surcharging occurs when water rises above the top of the highest conduit.
  ---------------------------------------------------------------------
                                               Max. Height   Min. Depth
                                   Hours       Above Crown    Below Rim
  Node                 Type      Surcharged         Meters       Meters
  ---------------------------------------------------------------------
  WS02006109           JUNCTION        0.60          0.084        1.736
  WS02006232           JUNCTION        0.14          0.018        1.462
  WS02006256           JUNCTION        0.01          1.050        0.000
  WS02006228           JUNCTION        0.55          0.098        2.102
  YS02001751           JUNCTION        1.67          0.238        0.962
  YS02001754           JUNCTION        2.84          0.459        0.691
  YS02001762           JUNCTION        5.04          0.717        0.433
  YS02001765           JUNCTION        4.29          0.667        0.433
  YS02001767           JUNCTION        3.88          0.628        0.402
  YS02001770           JUNCTION        3.65          0.592        0.328
  YS02001774           JUNCTION        4.89          0.695        0.355
  YS02001779           JUNCTION        2.61          0.431        0.249
  YS02001759           JUNCTION        5.13          0.753        0.457
  YS02001619           JUNCTION        1.36          0.188        0.422
  YS02001629           JUNCTION        1.36          0.188        0.282
  YS02001641           JUNCTION        4.69          0.680        0.420
  YS02001644           JUNCTION        4.80          0.685        0.235
  YS02001652           JUNCTION        3.28          0.491        0.639
  YS02001655           JUNCTION        1.83          0.266        0.934
  YS02001622           JUNCTION        1.53          0.213        0.407
  YS02001633           JUNCTION        4.03          0.643        0.417
  YS02001649           JUNCTION        5.08          0.727        0.323
  YS02001757           JUNCTION        5.30          0.856        0.354
  YS02001625           JUNCTION        3.39          0.513        0.267
  YS02163301           JUNCTION        3.68          0.600        0.430
  YS02163601           JUNCTION        5.07          0.719        0.361
  YS02164001           JUNCTION        4.18          0.659        0.441
  YS02001647           JUNCTION        3.35          0.507        0.393
  YS02001790           JUNCTION        0.04          0.845        0.312
  YS02001791           JUNCTION        0.47          0.795        1.125
  YS02001793           JUNCTION        0.74          0.782        1.818
  
  
  *********************
  Node Flooding Summary
  *********************
  
  Flooding refers to all water that overflows a node, whether it ponds or not.
  --------------------------------------------------------------------------
                                                             Total   Maximum
                                 Maximum   Time of Max       Flood    Ponded
                        Hours       Rate    Occurrence      Volume     Depth
  Node                 Flooded       LPS   days hr:min    10^6 ltr    Meters
  --------------------------------------------------------------------------
  WS02006256              0.01    406.11      0  00:00       0.001     0.000
  XR-storage              3.00    163.47      0  04:50       0.619     0.000
  
  
  **********************
  Storage Volume Summary
  **********************
  
  --------------------------------------------------------------------------------------------------
                         Average     Avg  Evap Exfil       Maximum     Max    Time of Max    Maximum
                          Volume    Pcnt  Pcnt  Pcnt        Volume    Pcnt     Occurrence    Outflow
  Storage Unit           1000 m3    Full  Loss  Loss       1000 m3    Full    days hr:min        LPS
  --------------------------------------------------------------------------------------------------
  JK-storage               0.076      26     0     0         0.281      96       0  03:09     600.00
  CC-storage               1.310       8     0     0         3.108      20       0  07:50     200.00
  XR-storage               0.685      74     0     0         0.926     100       0  04:50     285.00
  
  
  ***********************
  Outfall Loading Summary
  ***********************
  
  -----------------------------------------------------------
                         Flow       Avg       Max       Total
                         Freq      Flow      Flow      Volume
  Outfall Node           Pcnt       LPS       LPS    10^6 ltr
  -----------------------------------------------------------
  WSC                   99.99    475.41    728.67      11.578
  3                     84.07    134.39    597.65       1.927
  4                      0.00      0.00      0.00       0.000
  5                      0.00      0.00      0.00       0.000
  -----------------------------------------------------------
  System                46.02    609.80   1092.61      13.506
  
  
  ********************
  Link Flow Summary
  ********************
  
  -----------------------------------------------------------------------------
                                 Maximum  Time of Max   Maximum    Max/    Max/
                                  |Flow|   Occurrence   |Veloc|    Full    Full
  Link                 Type          LPS  days hr:min     m/sec    Flow   Depth
  -----------------------------------------------------------------------------
  WS02003066WSF200     CONDUIT    476.86     0  02:41      2.65    0.08    0.22
  WS02006287WS02006284 CONDUIT    205.25     0  02:18      1.62    0.10    0.22
  WS02006284WS02006280 CONDUIT    205.35     0  02:18      1.86    0.09    0.20
  WS02006280WS02006229 CONDUIT    205.35     0  02:18      2.99    0.04    0.14
  WS02006229WS02006228 CONDUIT    477.95     0  02:33      0.95    1.58    1.00
  WS02006256WS02006235 CONDUIT    177.52     0  00:01      2.73    1.88    1.00
  WS02006253WS02006251 CONDUIT     40.04     0  02:18      0.49    0.12    0.64
  WS02006252WS02006251 CONDUIT    200.54     0  02:23      1.97    0.74    0.76
  WS02006251WS02006249 CONDUIT    234.14     0  02:26      0.97    0.68    0.64
  WS02006249WS02006248 CONDUIT    232.87     0  02:27      1.05    1.28    0.61
  WS02006248WS02006247 CONDUIT    231.81     0  02:28      1.02    0.50    0.64
  WS02006247WS02006245 CONDUIT    233.02     0  02:42      0.98    1.85    0.68
  WS02006245WS02006243 CONDUIT    236.17     0  02:41      1.02    0.70    0.69
  WS02006243WS02006242 CONDUIT    242.61     0  02:41      0.85    0.52    0.79
  WS02006242WS02006240 CONDUIT    248.80     0  02:41      0.79    0.99    0.86
  WS02006240WS02006239 CONDUIT    255.98     0  02:40      0.85    0.81    0.84
  WS02006239WS02006238 CONDUIT    262.49     0  02:40      0.76    0.84    0.93
  WS02006238WS02006235 CONDUIT    266.08     0  02:40      1.32    0.59    0.96
  WS02006235WS02006234 CONDUIT    317.29     0  03:11      0.94    3.35    0.91
  WS02006234WS02006232 CONDUIT    317.60     0  03:11      1.17    0.64    0.96
  WS02006232WS02006231 CONDUIT    317.85     0  03:11      0.94    0.67    0.92
  WS02006231WS02006230 CONDUIT    318.41     0  03:12      1.28    4.83    0.81
  WS02006230WS02006229 CONDUIT    329.63     0  03:11      0.86    7.34    1.00
  WS02006228WS02006109 CONDUIT    477.96     0  02:33      0.95    2.09    1.00
  WS02006116WS02004401 CONDUIT    480.25     0  02:36      0.72    0.66    0.79
  WS02006115WS02006116 CONDUIT    481.11     0  02:35      0.82    0.62    0.71
  WS02006113WS02006111 CONDUIT    494.22     0  02:33      2.36    0.59    0.43
  WS02006112WS02006115 CONDUIT    482.78     0  02:34      0.69    0.28    0.84
  WS02006111WS02006112 CONDUIT    481.10     0  02:33      1.36    0.23    0.66
  WS02006110WS02006113 CONDUIT    479.29     0  02:33      1.16    0.44    0.77
  WS02006109WS02006110 CONDUIT    479.19     0  02:33      0.96    0.92    0.98
  WS02004411WS02004412 CONDUIT    477.19     0  02:39      0.87    0.68    0.66
  WS02004401WS02004402 CONDUIT    479.81     0  02:36      0.70    0.58    0.82
  WS02004413WS02003067 CONDUIT    476.82     0  02:40      1.04    0.20    0.57
  WS02004412WS02004413 CONDUIT    476.92     0  02:40      0.76    0.32    0.74
  WS02004410WS02004411 CONDUIT    477.66     0  02:39      0.89    0.65    0.65
  WS02004409WS02004410 CONDUIT    478.45     0  02:38      0.92    0.62    0.63
  WS02004407WS02004409 CONDUIT    479.54     0  02:37      1.41    0.17    0.45
  WS02004406WS02004407 CONDUIT    479.57     0  02:37      0.97    0.21    0.60
  WS02004405WS02004406 CONDUIT    479.59     0  02:37      0.63    0.95    0.92
  WS02004404WS02004405 CONDUIT    479.58     0  02:37      0.63    4.70    0.92
  WS02004403WS02004404 CONDUIT    479.46     0  02:37      0.65    0.35    0.89
  WS02004402WS02004403 CONDUIT    479.58     0  02:36      0.68    0.69    0.84
  WS02004139WS02001211 CONDUIT    285.51     0  03:29      0.80    0.36    0.52
  WS02004138WS02004139 CONDUIT    290.01     0  00:00      3.34    0.06    0.38
  WS02003067WS02003066 CONDUIT    476.85     0  02:41      1.13    0.15    0.40
  WS02001213WS02003059 CONDUIT    293.66     0  03:27      0.80    0.48    0.69
  WS02001212WS02001213 CONDUIT    293.28     0  03:28      1.19    0.45    0.39
  WS02001211WS02001212 CONDUIT    293.07     0  03:28      0.67    0.22    0.57
  WS02003072WS02003073 CONDUIT    726.88     0  02:39      1.58    1.57    0.43
  WS02003069WS02003072 CONDUIT    726.89     0  02:38      1.49    0.35    0.45
  WS02003060WS02003069 CONDUIT    726.66     0  02:37      1.75    0.28    0.39
  WS02003059WS02003060 CONDUIT    294.18     0  03:27      0.82    0.19    0.58
  HS02004901HS02004770 CONDUIT     10.31     0  02:14      0.05    0.04    0.32
  HS02004876HS02004881 CONDUIT     34.68     0  02:18      0.56    0.37    0.09
  HS02004870HS02004876 CONDUIT     27.55     0  02:18      0.39    0.02    0.10
  HS02004842HS02004848 CONDUIT      5.36     0  02:30      0.03    0.00    0.27
  HS02004837HS02004842 CONDUIT      5.55     0  02:30      0.41    0.00    0.29
  HS02004830HS02004837 CONDUIT     23.69     0  02:17      0.44    0.02    0.08
  HS02004824HS02004830 CONDUIT     23.84     0  02:18      0.48    0.03    0.07
  HS02004817HS02004824 CONDUIT     38.20     0  02:21      0.17    0.02    0.40
  HS02004770HS02004777 CONDUIT     52.56     0  02:14      0.23    0.10    0.33
  HS02004799HS02004480 CONDUIT    130.00     0  02:16      0.59    0.16    0.31
  HS02004792HS02004799 CONDUIT    118.83     0  02:16      0.68    0.07    0.25
  HS02004788HS02004792 CONDUIT     69.18     0  02:17      0.83    0.05    0.12
  HS02004785HS02004788 CONDUIT     52.19     0  02:16      0.51    0.39    0.15
  HS02004777HS02004785 CONDUIT     52.15     0  02:15      0.27    0.06    0.27
  HS02004480HS02004478 CONDUIT    153.43     0  02:17      0.96    0.65    0.23
  HS02004479HS02004480 CONDUIT     24.00     0  02:19      0.16    0.02    0.31
  HS02004862HS02004870 CONDUIT     20.07     0  02:19      0.47    0.02    0.06
  HS02004848HS02004852 CONDUIT      8.08     0  02:17      0.31    0.01    0.04
  HS02004856HS02004862 CONDUIT     13.59     0  02:18      0.34    0.01    0.06
  HS02004852HS02004856 CONDUIT      8.04     0  02:19      0.12    0.01    0.09
  HS02004802HS02004478 CONDUIT     53.17     0  02:21      0.30    0.05    0.26
  HS02004478WS02006287 CONDUIT    205.22     0  02:18      1.32    0.06    0.17
  HS02004817HS02004807 CONDUIT     39.35     0  02:22      0.11    0.02    0.51
  HS02004807HS02004802 CONDUIT     52.78     0  02:20      0.25    0.10    0.30
  YS02001759YS02001757 CONDUIT    216.42     0  03:01      0.28    0.15    1.00
  YS02001762YS02001759 CONDUIT    130.64     0  03:08      0.18    0.15    1.00
  YS02001765YS02001762 CONDUIT    134.31     0  03:08      0.23    0.13    1.00
  YS02001770YS02001767 CONDUIT    145.28     0  03:06      0.32    0.58    1.00
  YS02001774YS02001770 CONDUIT     86.21     0  03:35      0.15    0.06    1.00
  YS02001779YS02001774 CONDUIT     73.69     0  03:33      0.10    0.04    1.00
  YS02001649YS02001757 CONDUIT    315.85     0  03:01      0.40    0.19    1.00
  YS02001767YS02001765 CONDUIT    120.58     0  03:02      0.26    0.15    1.00
  YS02006561YS02001783 CONDUIT    313.59     0  02:53      1.79    0.16    0.39
  YS02001783YS02001784 CONDUIT    314.54     0  03:00      1.23    0.43    0.55
  YS02001784YS02001785 CONDUIT    319.60     0  03:00      1.32    0.74    0.56
  YS02001788YS02001790 CONDUIT    422.36     0  03:20      1.88    0.31    0.76
  YS02001790YS02001791 CONDUIT    393.50     0  02:55      2.21    0.43    1.00
  YS02001791YS02001793 CONDUIT    451.46     0  02:52      4.39    0.19    1.00
  YS02001910YS02001907 CONDUIT     97.65     0  03:01      0.49    0.06    0.74
  YS02001786YS02001788 CONDUIT    351.53     0  03:00      1.81    0.68    0.55
  YS02001915YS02001910 CONDUIT     97.50     0  03:00      0.44    0.05    0.53
  YS02001918YS02001915 CONDUIT     32.95     0  03:03      0.44    0.02    0.26
  YS02001923YS02001920 CONDUIT     30.11     0  03:02      0.45    0.01    0.14
  YS02001926YS02001923 CONDUIT     30.08     0  03:01      0.49    0.04    0.13
  YS02001929YS02001926 CONDUIT     30.08     0  03:01      0.52    0.01    0.13
  YS02001920YS02001918 CONDUIT     32.96     0  03:02      0.46    0.03    0.15
  YS02001629YS02163301 CONDUIT     94.32     0  03:00      0.13    0.12    1.00
  YS02001619YS02001622 CONDUIT     86.56     0  03:01      0.66    0.13    1.00
  YS02001622YS02001625 CONDUIT     91.51     0  03:01      0.25    0.05    1.00
  YS02001625YS02001629 CONDUIT    101.70     0  03:03      0.25    0.05    1.00
  YS02163301YS02001633 CONDUIT     76.38     0  02:48      0.10    0.07    1.00
  YS02163601YS02164001 CONDUIT    156.70     0  03:02      0.20    0.14    1.00
  YS02164001YS02001641 CONDUIT    151.15     0  02:56      0.19    0.21    1.00
  YS02001641YS02001644 CONDUIT    146.72     0  02:57      0.19    0.47    1.00
  YS02001647YS02001649 CONDUIT    230.55     0  03:04      0.31    0.12    1.00
  YS02006553YS02006556 CONDUIT    213.73     0  02:56      0.31    0.18    0.82
  YS02006556YS02006558 CONDUIT    213.75     0  02:56      0.30    0.17    0.85
  YSB6556YSB1171       CONDUIT     12.94     0  02:19      0.06    0.01    0.57
  YS02001907YS02006553 CONDUIT    213.65     0  02:56      0.26    0.25    0.93
  YS02006558YS02006561 CONDUIT    313.59     0  02:53      2.29    0.69    0.49
  YS02001633YS02163601 CONDUIT    157.35     0  03:02      0.20    0.17    1.00
  YS02001644YS02001647 CONDUIT    212.17     0  03:01      0.28    0.12    1.00
  YS02001745YS02001748 CONDUIT     96.09     0  04:57      1.40    0.04    0.78
  YS02001748YS02001751 CONDUIT    143.42     0  03:00      1.09    0.07    1.00
  YS02001751YS02001754 CONDUIT     94.80     0  02:38      0.97    0.05    1.00
  YS02001754YS02001757 CONDUIT    129.83     0  02:59      0.33    0.05    1.00
  YS02001882YS02001884 CONDUIT      4.01     0  02:10      0.06    0.00    0.46
  YS02001884YS02001887 CONDUIT     11.60     0  02:07      0.06    0.02    0.56
  YS02001890YS02001895 CONDUIT    118.53     0  02:44      0.29    0.06    0.53
  YS02001895YS02001898 CONDUIT    118.41     0  02:47      0.49    0.21    0.39
  YS02001898YS02001901 CONDUIT    118.31     0  02:46      0.33    0.08    0.47
  YS02001901YS02001904 CONDUIT    117.74     0  02:48      0.29    0.18    0.52
  YS02001904YS02001907 CONDUIT    117.93     0  02:48      0.21    0.04    0.68
  YS02001887YS02001890 CONDUIT    118.97     0  02:44      0.24    0.20    0.61
  YS02001652YS02001649 CONDUIT    141.81     0  02:55      0.33    0.07    1.00
  YS02001655YS02001652 CONDUIT    113.99     0  02:59      1.05    0.06    1.00
  YS02001658YS02001655 CONDUIT    147.54     0  02:58      1.26    0.06    0.99
  YS02001661YS02001658 CONDUIT    110.46     0  05:35      1.45    0.04    0.81
  YS02001664YS02001661 CONDUIT     84.67     0  02:44      1.11    0.03    0.45
  YSB1154YSB6556       CONDUIT     12.76     0  02:16      0.19    0.02    0.46
  YSB1174YSB1171       CONDUIT     11.90     0  02:11      0.06    0.02    0.58
  YSB1171HS02004479    CONDUIT     23.78     0  02:18      0.54    0.02    0.45
  HS02004881HS02006253 CONDUIT     38.83     0  02:17      1.66    0.01    0.10
  YS02001793JiankangQianchi CONDUIT    632.37     0  03:50     12.68    0.05    1.00
  YS02001757CaochengTiaoxuchi CONDUIT    527.91     0  03:03      1.13    0.23    1.00
  WSF200WS02003060     CONDUIT    477.27     0  02:41      1.68    0.11    0.31
  1                    CONDUIT    728.67     0  02:39      3.05    0.25    0.34
  2                    CONDUIT      0.00     0  00:00      0.00    0.00    0.00
  3                    CONDUIT    597.65     0  00:00     10.16    0.95    0.86
  4                    CONDUIT      0.00     0  00:00      0.00    0.00    0.00
  CC-Pump-1            PUMP       200.00     0  02:23              1.00
  CC-Pump-2            PUMP         0.00     0  00:00              0.00
  JK-Pump-1            PUMP       300.00     0  00:00              1.00
  JK-Pump-2            PUMP       300.00     0  00:00              1.00
  XR-Pump-1            PUMP        95.00     0  02:20              1.00
  XR-Pump-2            PUMP        95.00     0  00:00              1.00
  XR-Pump-3            PUMP        95.00     0  00:00              1.00
  XR-Pump-4            PUMP        95.00     0  00:00              1.00
  
  
  ***************************
  Flow Classification Summary
  ***************************
  
  -------------------------------------------------------------------------------------
                      Adjusted    ---------- Fraction of Time in Flow Class ---------- 
                       /Actual         Up    Down  Sub   Sup   Up    Down  Norm  Inlet 
  Conduit               Length    Dry  Dry   Dry   Crit  Crit  Crit  Crit  Ltd   Ctrl  
  -------------------------------------------------------------------------------------
  WS02003066WSF200        1.00   0.09  0.00  0.00  0.00  0.91  0.00  0.00  0.68  0.00
  WS02006287WS02006284    1.00   0.04  0.02  0.00  0.63  0.31  0.00  0.00  0.78  0.00
  WS02006284WS02006280    1.00   0.05  0.00  0.00  0.00  0.00  0.00  0.95  0.00  0.00
  WS02006280WS02006229    1.00   0.05  0.00  0.00  0.00  0.00  0.00  0.95  0.00  0.00
  WS02006229WS02006228    1.00   0.00  0.00  0.00  0.98  0.00  0.00  0.02  0.00  0.00
  WS02006256WS02006235    1.00   0.00  0.00  0.00  0.99  0.01  0.00  0.00  0.00  0.00
  WS02006253WS02006251    1.00   0.03  0.02  0.00  0.95  0.00  0.00  0.00  0.00  0.00
  WS02006252WS02006251    1.00   0.11  0.04  0.00  0.00  0.00  0.86  0.00  0.00  0.00
  WS02006251WS02006249    1.00   0.00  0.00  0.00  1.00  0.00  0.00  0.00  0.65  0.00
  WS02006249WS02006248    1.00   0.00  0.02  0.00  0.55  0.00  0.43  0.00  0.00  0.00
  WS02006248WS02006247    1.00   0.02  0.00  0.00  0.96  0.00  0.00  0.01  0.55  0.00
  WS02006247WS02006245    1.00   0.03  0.00  0.00  0.95  0.00  0.00  0.02  0.00  0.00
  WS02006245WS02006243    1.00   0.02  0.00  0.00  0.92  0.00  0.00  0.06  0.03  0.00
  WS02006243WS02006242    1.00   0.01  0.01  0.00  0.98  0.00  0.00  0.00  0.27  0.00
  WS02006242WS02006240    1.00   0.01  0.00  0.00  0.99  0.00  0.00  0.00  0.00  0.00
  WS02006240WS02006239    1.00   0.00  0.00  0.00  0.94  0.00  0.00  0.06  0.02  0.00
  WS02006239WS02006238    1.00   0.00  0.00  0.00  1.00  0.00  0.00  0.00  0.00  0.00
  WS02006238WS02006235    1.00   0.00  0.00  0.00  1.00  0.00  0.00  0.00  0.00  0.00
  WS02006235WS02006234    1.00   0.00  0.00  0.00  0.93  0.00  0.07  0.00  0.00  0.00
  WS02006234WS02006232    1.00   0.00  0.00  0.00  0.99  0.00  0.00  0.00  0.00  0.00
  WS02006232WS02006231    1.00   0.00  0.00  0.00  0.99  0.00  0.01  0.00  0.00  0.00
  WS02006231WS02006230    1.00   0.01  0.00  0.00  0.41  0.00  0.59  0.00  0.00  0.00
  WS02006230WS02006229    1.00   0.00  0.00  0.00  0.98  0.00  0.00  0.02  0.01  0.00
  WS02006228WS02006109    1.00   0.00  0.00  0.00  0.99  0.00  0.00  0.00  0.00  0.00
  WS02006116WS02004401    1.00   0.03  0.00  0.00  0.97  0.00  0.00  0.00  0.00  0.00
  WS02006115WS02006116    1.00   0.03  0.00  0.00  0.96  0.00  0.00  0.02  0.01  0.00
  WS02006113WS02006111    1.00   0.02  0.00  0.00  0.00  0.98  0.00  0.00  0.18  0.00
  WS02006112WS02006115    1.00   0.02  0.00  0.00  0.97  0.00  0.00  0.00  0.00  0.00
  WS02006111WS02006112    1.00   0.02  0.00  0.00  0.97  0.00  0.00  0.00  0.98  0.00
  WS02006110WS02006113    1.00   0.02  0.00  0.00  0.98  0.00  0.00  0.00  0.00  0.00
  WS02006109WS02006110    1.00   0.00  0.02  0.00  0.98  0.00  0.00  0.00  0.00  0.00
  WS02004411WS02004412    1.00   0.07  0.00  0.00  0.93  0.00  0.00  0.00  0.00  0.00
  WS02004401WS02004402    1.00   0.03  0.00  0.00  0.97  0.00  0.00  0.00  0.00  0.00
  WS02004413WS02003067    1.00   0.07  0.02  0.00  0.00  0.00  0.92  0.00  0.00  0.00
  WS02004412WS02004413    1.00   0.07  0.00  0.00  0.93  0.00  0.00  0.00  0.03  0.00
  WS02004410WS02004411    1.00   0.06  0.00  0.00  0.94  0.00  0.00  0.00  0.01  0.00
  WS02004409WS02004410    1.00   0.06  0.00  0.00  0.94  0.00  0.00  0.00  0.00  0.00
  WS02004407WS02004409    1.00   0.06  0.00  0.00  0.93  0.00  0.00  0.00  0.80  0.00
  WS02004406WS02004407    1.00   0.00  0.06  0.00  0.94  0.00  0.00  0.00  0.00  0.00
  WS02004405WS02004406    1.00   0.00  0.00  0.00  1.00  0.00  0.00  0.00  0.02  0.00
  WS02004404WS02004405    1.00   0.00  0.00  0.00  1.00  0.00  0.00  0.00  0.00  0.00
  WS02004403WS02004404    1.00   0.00  0.03  0.00  0.97  0.00  0.00  0.00  0.02  0.00
  WS02004402WS02004403    1.00   0.03  0.00  0.00  0.97  0.00  0.00  0.00  0.00  0.00
  WS02004139WS02001211    1.00   0.00  0.00  0.00  0.99  0.00  0.01  0.00  0.00  0.00
  WS02004138WS02004139    1.00   0.00  0.00  0.00  0.98  0.01  0.00  0.00  1.00  0.00
  WS02003067WS02003066    1.00   0.08  0.01  0.00  0.91  0.00  0.00  0.00  0.00  0.00
  WS02001213WS02003059    1.00   0.00  0.00  0.00  0.99  0.00  0.00  0.00  0.00  0.00
  WS02001212WS02001213    1.00   0.01  0.00  0.00  0.54  0.00  0.45  0.00  0.00  0.00
  WS02001211WS02001212    1.00   0.00  0.01  0.00  0.99  0.00  0.00  0.00  0.00  0.00
  WS02003072WS02003073    1.00   0.00  0.00  0.00  0.00  0.00  0.00  1.00  0.00  0.00
  WS02003069WS02003072    1.00   0.00  0.00  0.00  0.99  0.01  0.00  0.00  0.59  0.00
  WS02003060WS02003069    1.00   0.00  0.00  0.00  0.96  0.04  0.00  0.00  0.06  0.00
  WS02003059WS02003060    1.00   0.00  0.00  0.00  0.99  0.01  0.00  0.00  0.01  0.00
  HS02004901HS02004770    1.00   0.05  0.00  0.00  0.95  0.00  0.00  0.00  0.02  0.00
  HS02004876HS02004881    1.00   0.02  0.00  0.00  0.98  0.00  0.00  0.00  0.00  0.00
  HS02004870HS02004876    1.00   0.01  0.00  0.00  0.99  0.00  0.00  0.00  0.95  0.00
  HS02004842HS02004848    1.00   0.00  0.05  0.00  0.95  0.00  0.00  0.00  0.69  0.00
  HS02004837HS02004842    1.00   0.00  0.00  0.00  0.99  0.01  0.00  0.00  0.11  0.00
  HS02004830HS02004837    1.00   0.00  0.00  0.00  1.00  0.00  0.00  0.00  0.99  0.00
  HS02004824HS02004830    1.00   0.00  0.00  0.00  1.00  0.00  0.00  0.00  0.00  0.00
  HS02004817HS02004824    1.00   0.00  0.00  0.00  1.00  0.00  0.00  0.00  1.00  0.00
  HS02004770HS02004777    1.00   0.00  0.05  0.00  0.95  0.00  0.00  0.00  0.07  0.00
  HS02004799HS02004480    1.00   0.01  0.02  0.00  0.93  0.00  0.04  0.00  0.00  0.00
  HS02004792HS02004799    1.00   0.00  0.00  0.00  0.98  0.02  0.00  0.00  0.98  0.00
  HS02004788HS02004792    1.00   0.00  0.00  0.00  0.98  0.02  0.00  0.00  0.98  0.00
  HS02004785HS02004788    1.00   0.00  0.00  0.00  1.00  0.00  0.00  0.00  0.00  0.00
  HS02004777HS02004785    1.00   0.00  0.00  0.00  1.00  0.00  0.00  0.00  0.21  0.00
  HS02004480HS02004478    1.00   0.06  0.00  0.00  0.68  0.00  0.00  0.27  0.00  0.00
  HS02004479HS02004480    1.00   0.03  0.00  0.00  0.97  0.00  0.00  0.00  0.16  0.00
  HS02004862HS02004870    1.00   0.00  0.00  0.00  1.00  0.00  0.00  0.00  0.06  0.00
  HS02004848HS02004852    1.00   0.05  0.00  0.00  0.95  0.00  0.00  0.00  0.71  0.00
  HS02004856HS02004862    1.00   0.00  0.08  0.00  0.92  0.00  0.00  0.00  0.74  0.00
  HS02004852HS02004856    1.00   0.05  0.01  0.00  0.94  0.00  0.00  0.00  0.83  0.00
  HS02004802HS02004478    1.00   0.05  0.01  0.00  0.94  0.00  0.00  0.00  0.01  0.00
  HS02004478WS02006287    1.00   0.06  0.00  0.00  0.85  0.09  0.00  0.00  0.77  0.00
  HS02004817HS02004807    1.00   0.00  0.05  0.00  0.95  0.00  0.00  0.00  0.00  0.00
  HS02004807HS02004802    1.00   0.05  0.00  0.00  0.95  0.00  0.00  0.00  0.01  0.00
  YS02001759YS02001757    1.00   0.00  0.00  0.00  1.00  0.00  0.00  0.00  0.17  0.00
  YS02001762YS02001759    1.00   0.00  0.00  0.00  1.00  0.00  0.00  0.00  0.04  0.00
  YS02001765YS02001762    1.00   0.00  0.00  0.00  1.00  0.00  0.00  0.00  0.22  0.00
  YS02001770YS02001767    1.00   0.00  0.00  0.00  1.00  0.00  0.00  0.00  0.00  0.00
  YS02001774YS02001770    1.00   0.00  0.06  0.00  0.94  0.00  0.00  0.00  0.07  0.00
  YS02001779YS02001774    1.00   0.00  0.00  0.00  1.00  0.00  0.00  0.00  0.26  0.00
  YS02001649YS02001757    1.00   0.00  0.00  0.00  1.00  0.00  0.00  0.00  0.19  0.00
  YS02001767YS02001765    1.00   0.00  0.00  0.00  1.00  0.00  0.00  0.00  0.01  0.00
  YS02006561YS02001783    1.00   0.08  0.00  0.00  0.00  0.92  0.00  0.00  0.73  0.00
  YS02001783YS02001784    1.00   0.00  0.08  0.00  0.92  0.00  0.00  0.00  0.00  0.00
  YS02001784YS02001785    1.00   0.00  0.00  0.00  1.00  0.00  0.00  0.00  0.25  0.00
  YS02001788YS02001790    1.00   0.00  0.00  0.00  0.23  0.77  0.00  0.00  0.80  0.00
  YS02001790YS02001791    1.00   0.00  0.00  0.00  0.19  0.81  0.00  0.00  0.44  0.00
  YS02001791YS02001793    1.00   0.00  0.00  0.00  0.21  0.79  0.00  0.00  0.03  0.00
  YS02001910YS02001907    1.00   0.00  0.00  0.00  0.97  0.00  0.00  0.02  0.13  0.00
  YS02001786YS02001788    1.00   0.00  0.00  0.00  0.18  0.82  0.00  0.00  0.00  0.00
  YS02001915YS02001910    1.00   0.00  0.00  0.00  1.00  0.00  0.00  0.00  0.24  0.00
  YS02001918YS02001915    1.00   0.00  0.01  0.00  0.98  0.01  0.00  0.00  0.82  0.00
  YS02001923YS02001920    1.00   0.00  0.00  0.00  1.00  0.00  0.00  0.00  1.00  0.00
  YS02001926YS02001923    1.00   0.00  0.04  0.00  0.00  0.00  0.96  0.00  0.00  0.00
  YS02001929YS02001926    1.00   0.00  0.05  0.00  0.95  0.00  0.00  0.00  0.87  0.00
  YS02001920YS02001918    1.00   0.00  0.01  0.00  0.99  0.00  0.00  0.00  0.00  0.00
  YS02001629YS02163301    1.00   0.07  0.01  0.00  0.92  0.00  0.00  0.00  0.00  0.00
  YS02001619YS02001622    1.00   0.05  0.00  0.00  0.95  0.00  0.00  0.00  0.00  0.00
  YS02001622YS02001625    1.00   0.05  0.00  0.00  0.95  0.00  0.00  0.00  0.13  0.00
  YS02001625YS02001629    1.00   0.05  0.03  0.00  0.89  0.00  0.02  0.00  0.00  0.00
  YS02163301YS02001633    1.00   0.00  0.07  0.00  0.93  0.00  0.00  0.00  0.00  0.00
  YS02163601YS02164001    1.00   0.00  0.04  0.00  0.96  0.00  0.00  0.00  0.00  0.00
  YS02164001YS02001641    1.00   0.02  0.02  0.00  0.96  0.00  0.00  0.00  0.07  0.00
  YS02001641YS02001644    1.00   0.00  0.01  0.00  0.99  0.00  0.00  0.00  0.00  0.00
  YS02001647YS02001649    1.00   0.00  0.08  0.00  0.92  0.00  0.00  0.00  0.01  0.00
  YS02006553YS02006556    1.00   0.02  0.00  0.00  0.98  0.00  0.00  0.00  0.03  0.00
  YS02006556YS02006558    1.00   0.00  0.01  0.00  0.99  0.00  0.00  0.00  0.00  0.00
  YSB6556YSB1171          1.00   0.03  0.02  0.00  0.95  0.00  0.00  0.00  0.00  0.00
  YS02001907YS02006553    1.00   0.01  0.02  0.00  0.97  0.00  0.00  0.00  0.00  0.00
  YS02006558YS02006561    1.00   0.08  0.00  0.00  0.00  0.92  0.00  0.00  0.73  0.00
  YS02001633YS02163601    1.00   0.00  0.01  0.00  0.99  0.00  0.00  0.00  0.20  0.00
  YS02001644YS02001647    1.00   0.00  0.08  0.00  0.92  0.00  0.00  0.00  0.00  0.00
  YS02001745YS02001748    1.00   0.00  0.00  0.00  0.82  0.02  0.00  0.16  0.25  0.00
  YS02001748YS02001751    1.00   0.00  0.00  0.00  0.96  0.04  0.00  0.00  0.24  0.00
  YS02001751YS02001754    1.00   0.00  0.00  0.00  0.91  0.00  0.00  0.09  0.02  0.00
  YS02001754YS02001757    1.00   0.00  0.00  0.00  0.99  0.01  0.00  0.00  0.26  0.00
  YS02001882YS02001884    1.00   0.07  0.00  0.00  0.93  0.00  0.00  0.00  0.00  0.00
  YS02001884YS02001887    1.00   0.03  0.01  0.00  0.95  0.00  0.00  0.00  0.00  0.00
  YS02001890YS02001895    1.00   0.01  0.07  0.00  0.92  0.00  0.00  0.00  0.00  0.00
  YS02001895YS02001898    1.00   0.08  0.00  0.00  0.91  0.00  0.01  0.00  0.00  0.00
  YS02001898YS02001901    1.00   0.07  0.01  0.00  0.92  0.00  0.00  0.00  0.02  0.00
  YS02001901YS02001904    1.00   0.07  0.00  0.00  0.93  0.00  0.00  0.00  0.00  0.00
  YS02001904YS02001907    1.00   0.01  0.07  0.00  0.93  0.00  0.00  0.00  0.00  0.00
  YS02001887YS02001890    1.00   0.00  0.01  0.00  0.97  0.00  0.02  0.00  0.00  0.00
  YS02001652YS02001649    1.00   0.00  0.00  0.00  1.00  0.00  0.00  0.00  0.26  0.00
  YS02001655YS02001652    1.00   0.00  0.00  0.00  0.91  0.00  0.00  0.09  0.02  0.00
  YS02001658YS02001655    1.00   0.00  0.06  0.00  0.90  0.04  0.00  0.00  0.11  0.00
  YS02001661YS02001658    1.00   0.06  0.00  0.00  0.82  0.12  0.00  0.00  0.28  0.00
  YS02001664YS02001661    1.00   0.05  0.00  0.00  0.71  0.24  0.00  0.00  0.72  0.00
  YSB1154YSB6556          1.00   0.05  0.00  0.00  0.95  0.00  0.00  0.00  0.02  0.00
  YSB1174YSB1171          1.00   0.03  0.01  0.00  0.96  0.00  0.00  0.00  0.00  0.00
  YSB1171HS02004479       1.00   0.03  0.00  0.00  0.97  0.00  0.00  0.00  0.13  0.00
  HS02004881HS02006253    1.00   0.03  0.00  0.00  0.46  0.01  0.00  0.50  0.28  0.00
  YS02001793JiankangQianchi    1.00   0.00  0.00  0.00  0.36  0.63  0.00  0.00  0.08  0.00
  YS02001757CaochengTiaoxuchi    1.00   0.00  0.11  0.00  0.89  0.00  0.00  0.00  0.00  0.00
  WSF200WS02003060        1.00   0.00  0.09  0.00  0.70  0.21  0.00  0.00  0.39  0.00
  1                       1.00   0.00  0.00  0.00  0.00  1.00  0.00  0.00  0.20  0.00
  2                       1.00   1.00  0.00  0.00  0.00  0.00  0.00  0.00  0.00  0.00
  3                       1.00   0.16  0.00  0.00  0.00  0.84  0.00  0.00  0.00  0.00
  4                       1.00   1.00  0.00  0.00  0.00  0.00  0.00  0.00  0.00  0.00
  
  
  *************************
  Conduit Surcharge Summary
  *************************
  
  ----------------------------------------------------------------------------
                                                           Hours        Hours 
                         --------- Hours Full --------   Above Full   Capacity
  Conduit                Both Ends  Upstream  Dnstream   Normal Flow   Limited
  ----------------------------------------------------------------------------
  WS02006229WS02006228        0.55      0.65      0.55      2.24         0.55
  WS02006256WS02006235        5.65      5.65      7.83      5.35         0.01
  WS02006249WS02006248        0.01      0.01      0.01      2.02         0.01
  WS02006247WS02006245        0.01      0.01      0.01      2.20         0.01
  WS02006235WS02006234        0.01      0.01      0.01      5.67         0.01
  WS02006234WS02006232        0.01      0.01      0.14      0.01         0.01
  WS02006232WS02006231        0.01      0.01      0.14      0.01         0.01
  WS02006231WS02006230        0.01      0.01      0.01      5.63         0.01
  WS02006230WS02006229        1.34      2.04      1.34      5.70         1.34
  WS02006228WS02006109        0.60      0.89      0.60      2.55         0.60
  WS02006111WS02006112        0.01      0.01      2.26      0.01         0.01
  WS02006110WS02006113        0.01      0.01      0.75      0.01         0.01
  WS02006109WS02006110        0.01      0.01      0.89      0.01         0.01
  WS02004404WS02004405        0.01      0.01      0.01      5.61         0.01
  WS02003072WS02003073        0.01      0.01      0.01      2.28         0.01
  YS02001759YS02001757        5.13      5.13      5.30      0.01         0.01
  YS02001762YS02001759        5.04      5.04      5.13      0.01         0.01
  YS02001765YS02001762        4.29      4.29      5.04      0.01         0.01
  YS02001770YS02001767        3.79      3.79      3.88      0.01         0.29
  YS02001774YS02001770        3.65      3.65      4.89      0.01         0.01
  YS02001779YS02001774        2.61      2.61      4.89      0.01         0.01
  YS02001649YS02001757        5.08      5.08      5.30      0.01         0.01
  YS02001767YS02001765        3.88      3.88      4.29      0.01         0.02
  YS02001788YS02001790        0.01      0.01      0.04      0.01         0.01
  YS02001790YS02001791        0.04      0.04      0.47      0.01         0.01
  YS02001791YS02001793        0.47      0.47      0.83      0.01         0.01
  YS02001629YS02163301        3.58      3.58      3.68      0.01         0.01
  YS02001619YS02001622        1.36      1.36      1.53      0.01         0.01
  YS02001622YS02001625        1.53      1.53      3.39      0.01         0.01
  YS02001625YS02001629        1.36      1.36      3.39      0.01         0.01
  YS02163301YS02001633        3.68      3.68      4.32      0.01         0.01
  YS02163601YS02164001        4.18      4.18      5.07      0.01         0.01
  YS02164001YS02001641        4.18      4.18      4.69      0.01         0.01
  YS02001641YS02001644        4.66      4.69      4.80      0.01         0.24
  YS02001647YS02001649        3.35      3.35      5.08      0.01         0.01
  YS02001633YS02163601        4.03      4.03      5.07      0.01         0.01
  YS02001644YS02001647        3.35      3.35      4.80      0.01         0.01
  YS02001748YS02001751        0.34      0.34      1.67      0.01         0.01
  YS02001751YS02001754        1.67      1.67      2.84      0.01         0.01
  YS02001754YS02001757        3.37      3.37      5.30      0.01         0.01
  YS02001652YS02001649        3.41      3.41      5.08      0.01         0.01
  YS02001655YS02001652        1.83      1.83      3.28      0.01         0.01
  YS02001658YS02001655        0.01      0.01      1.83      0.01         0.01
  YS02001793JiankangQianchi        0.74      0.74      1.54      0.01         0.01
  YS02001757CaochengTiaoxuchi        0.91      0.91      5.30      0.01         0.01
  3                           0.01      0.01      0.01      0.01         0.01
  
  
  ***************
  Pumping Summary
  ***************
  
  ---------------------------------------------------------------------------------------------------------
                                                  Min       Avg       Max     Total     Power    % Time Off
                        Percent   Number of      Flow      Flow      Flow    Volume     Usage    Pump Curve
  Pump                 Utilized   Start-Ups       LPS       LPS       LPS  10^6 ltr     Kw-hr    Low   High
  ---------------------------------------------------------------------------------------------------------
  CC-Pump-1               32.42           2      0.00    177.53    200.00     1.617      5.52    0.0   40.5
  CC-Pump-2                0.00           0      0.00      0.00      0.00     0.000      0.00    0.0    0.0
  JK-Pump-1               82.98           3      0.00    112.32    300.00     1.688     29.59    0.0    0.0
  JK-Pump-2               91.49           3      0.00    161.14    300.00     2.649     37.24    0.0    0.0
  XR-Pump-1               21.27           2      0.00     76.93     95.00     0.456      5.94    0.0    0.0
  XR-Pump-2               42.56           3      0.00     76.20     95.00     0.998     15.74    0.0    0.0
  XR-Pump-3               89.36           4      0.00     85.85     95.00     2.223     24.06    0.0    0.0
  XR-Pump-4               93.61           4      0.00     86.56     95.00     2.337     25.91    0.0    0.0
  

  Analysis begun on:  Tue Dec 21 17:24:14 2021
  Analysis ended on:  Tue Dec 21 17:24:17 2021
  Total elapsed time: 00:00:03