
  EPA STORM WATER MANAGEMENT MODEL - VERSION 5.1 (Build 5.3.0.dev0)
  --------------------------------------------------------------

  WARNING 04: minimum elevation drop used for Conduit WS02004404WS02004405
  WARNING 03: negative offset ignored for Link YS02001904YS02001907
  
  *********************************************************
  NOTE: The summary statistics displayed in this report are
  based on results found at every computational time step,  
  not just on results from each reporting time step.
  *********************************************************
  
  ****************
  Analysis Options
  ****************
  Flow Units ............... LPS
  Process Models:
    Rainfall/Runoff ........ YES
    RDII ................... NO
    Snowmelt ............... NO
    Groundwater ............ NO
    Flow Routing ........... YES
    Ponding Allowed ........ NO
    Water Quality .......... NO
  Infiltration Method ...... HORTON
  Flow Routing Method ...... DYNWAVE
  Surcharge Method ......... EXTRAN
  Starting Date ............ 08/28/2015 08:00:00
  Ending Date .............. 08/28/2015 15:50:00
  Antecedent Dry Days ...... 8.0
  Report Time Step ......... 00:01:00
  Wet Time Step ............ 00:01:00
  Dry Time Step ............ 00:01:00
  Routing Time Step ........ 5.00 sec
  Variable Time Step ....... YES
  Maximum Trials ........... 8
  Number of Threads ........ 4
  Head Tolerance ........... 0.001500 m
  
  
  **************************        Volume         Depth
  Runoff Quantity Continuity     hectare-m            mm
  **************************     ---------       -------
  Total Precipitation ......         2.372         5.192
  Evaporation Loss .........         0.000         0.000
  Infiltration Loss ........         0.592         1.296
  Surface Runoff ...........         0.926         2.027
  Final Storage ............         0.854         1.870
  Continuity Error (%) .....        -0.018
  
  
  **************************        Volume        Volume
  Flow Routing Continuity        hectare-m      10^6 ltr
  **************************     ---------     ---------
  Dry Weather Inflow .......         0.616         6.165
  Wet Weather Inflow .......         0.925         9.253
  Groundwater Inflow .......         0.000         0.000
  RDII Inflow ..............         0.000         0.000
  External Inflow ..........         0.102         1.024
  External Outflow .........         1.259        12.587
  Flooding Loss ............         0.066         0.663
  Evaporation Loss .........         0.000         0.000
  Exfiltration Loss ........         0.000         0.000
  Initial Stored Volume ....         0.076         0.761
  Final Stored Volume ......         0.517         5.171
  Continuity Error (%) .....        -7.092
  
  
  *************************
  Highest Continuity Errors
  *************************
  Node JK-storage (-41.84%)
  Node HS02004842 (31.24%)
  Node YS02001884 (25.77%)
  Node YS02001774 (10.08%)
  Node YSB1171 (8.11%)
  
  
  ***************************
  Time-Step Critical Elements
  ***************************
  Link 3 (47.18%)
  Link WS02006252WS02006251 (38.88%)
  Link YS02001793JiankangQianchi (5.42%)
  Link WS02006280WS02006229 (2.70%)
  
  
  ********************************
  Highest Flow Instability Indexes
  ********************************
  Link WS02006113WS02006111 (59)
  Link WS02006111WS02006112 (20)
  Link YS02163601YS02164001 (8)
  Link YS02164001YS02001641 (8)
  Link YS02001629YS02163301 (8)
  
  
  *************************
  Routing Time Step Summary
  *************************
  Minimum Time Step           :     0.50 sec
  Average Time Step           :     1.24 sec
  Maximum Time Step           :     5.00 sec
  Percent in Steady State     :    -0.00
  Average Iterations per Step :     2.67
  Percent Not Converging      :     7.28
  
  
  ***************************
  Subcatchment Runoff Summary
  ***************************
  
  ------------------------------------------------------------------------------------------------------------------------------
                            Total      Total      Total      Total     Imperv       Perv      Total       Total     Peak  Runoff
                           Precip      Runon       Evap      Infil     Runoff     Runoff     Runoff      Runoff   Runoff   Coeff
  Subcatchment                 mm         mm         mm         mm         mm         mm         mm    10^6 ltr      LPS
  ------------------------------------------------------------------------------------------------------------------------------
  sub0                       5.19       0.00       0.00       0.36       3.56       0.00       3.56        0.00     1.15   0.686
  sub1                       5.19       0.00       0.00       0.57       3.37       0.00       3.37        0.02     5.96   0.648
  sub2                       5.19       0.00       0.00       1.92       2.37       0.00       2.37        0.02     5.26   0.456
  sub3                       5.19       0.00       0.00       1.92       2.33       0.00       2.33        0.05    10.80   0.449
  sub4                       5.19       0.00       0.00       0.57       3.23       0.00       3.23        0.07    12.10   0.623
  sub5                       5.19       0.00       0.00       0.36       3.52       0.00       3.52        0.04    10.60   0.678
  sub7                       5.19       0.00       0.00       0.47       3.47       0.00       3.47        0.01     3.76   0.668
  sub8                       5.19       0.00       0.00       0.47       3.46       0.00       3.46        0.02     6.61   0.667
  sub9                       5.19       0.00       0.00       0.47       3.46       0.00       3.46        0.02     4.90   0.666
  sub10                      5.19       0.00       0.00       0.42       3.49       0.00       3.49        0.04    10.59   0.671
  sub11                      5.19       0.00       0.00       0.42       3.50       0.00       3.50        0.04    12.45   0.675
  sub12                      5.19       0.00       0.00       0.67       3.33       0.00       3.33        0.03    10.59   0.641
  sub14                      5.19       0.00       0.00       0.47       3.46       0.00       3.46        0.03     9.57   0.666
  sub15                      5.19       0.00       0.00       1.56       2.66       0.00       2.66        0.05    12.99   0.512
  sub16                      5.19       0.00       0.00       1.71       2.56       0.00       2.56        0.03     9.29   0.493
  sub17                      5.19       0.00       0.00       1.66       2.60       0.00       2.60        0.02     7.50   0.500
  sub22                      5.19       0.00       0.00       2.23       2.17       0.00       2.17        0.14    42.61   0.418
  sub23                      5.19       0.00       0.00       1.92       2.40       0.00       2.40        0.11    36.31   0.463
  sub60                      5.19       0.00       0.00       0.62       2.24       0.00       2.24        0.68    60.68   0.431
  sub61                      5.19       0.00       0.00       0.88       2.42       0.00       2.42        0.75    76.50   0.467
  sub62                      5.19       0.00       0.00       0.42       2.59       0.00       2.59        0.80    78.10   0.499
  sub63                      5.19       0.00       0.00       1.51       2.17       0.00       2.17        0.66    71.50   0.417
  sub64                      5.19       0.00       0.00       0.78       2.14       0.00       2.14        0.65    57.58   0.412
  sub65                      5.19       0.00       0.00       0.67       2.16       0.00       2.16        0.67    58.37   0.416
  sub66                      5.19       0.00       0.00       1.51       1.87       0.00       1.87        0.57    52.94   0.361
  sub67                      5.19       0.00       0.00       0.42       2.88       0.00       2.88        0.89   100.59   0.554
  sub68                      5.19       0.00       0.00       0.73       2.59       0.00       2.59        0.79    84.66   0.498
  sub69                      5.19       0.00       0.00       0.78       2.82       0.00       2.82        0.66    84.40   0.543
  sub70                      5.19       2.88       0.00       2.74       3.38       0.00       3.38        0.77    66.05   0.419
  sub71                      5.19       0.00       0.00       0.42       2.47       0.00       2.47        0.58    54.45   0.475
  sub72                      5.19       0.00       0.00       0.36       1.70       0.00       1.70        0.35    25.19   0.327
  sub73                      5.19       3.29       0.00       2.88       3.38       0.00       3.38        0.79    56.43   0.399
  sub74                      5.19       0.00       0.00       3.89       0.85       0.00       0.85        0.34    47.15   0.164
  
  
  ******************
  Node Depth Summary
  ******************
  
  ---------------------------------------------------------------------------------
                                 Average  Maximum  Maximum  Time of Max    Reported
                                   Depth    Depth      HGL   Occurrence   Max Depth
  Node                 Type       Meters   Meters   Meters  days hr:min      Meters
  ---------------------------------------------------------------------------------
  WS02001211           JUNCTION     0.61     0.71     5.54     0  03:31        0.71
  WS02001212           JUNCTION     0.34     0.42     5.49     0  03:30        0.42
  WS02001213           JUNCTION     0.56     0.67     5.43     0  03:29        0.67
  WS02003069           JUNCTION     0.37     0.49     5.07     0  03:28        0.49
  WS02003072           JUNCTION     0.44     0.55     4.92     0  03:28        0.55
  WS02003073           JUNCTION     0.26     0.33     4.40     0  03:29        0.33
  WS02003060           JUNCTION     0.34     0.43     5.36     0  03:27        0.43
  WS02003066           JUNCTION     0.20     0.27     5.83     0  02:43        0.27
  WS02003059           JUNCTION     0.62     0.72     5.41     0  03:28        0.72
  WS02003067           JUNCTION     0.51     0.66     5.98     0  02:43        0.66
  WS02004401           JUNCTION     0.59     0.78     6.78     0  02:40        0.78
  WS02004402           JUNCTION     0.62     0.81     6.77     0  02:40        0.81
  WS02004403           JUNCTION     0.65     0.83     6.76     0  02:40        0.83
  WS02004404           JUNCTION     0.72     0.90     6.75     0  02:40        0.90
  WS02004406           JUNCTION     0.73     0.90     6.73     0  02:40        0.90
  WS02004409           JUNCTION     0.41     0.60     6.37     0  02:42        0.60
  WS02004410           JUNCTION     0.43     0.61     6.33     0  02:42        0.61
  WS02004411           JUNCTION     0.45     0.63     6.31     0  02:42        0.63
  WS02004412           JUNCTION     0.47     0.64     6.28     0  02:42        0.64
  WS02004413           JUNCTION     0.62     0.80     6.27     0  02:43        0.80
  WS02004405           JUNCTION     0.72     0.90     6.75     0  02:40        0.90
  WS02006109           JUNCTION     0.66     0.87     7.49     0  02:36        0.87
  WS02006110           JUNCTION     0.66     0.85     7.44     0  02:37        0.85
  WS02006111           JUNCTION     0.19     0.26     6.97     0  02:37        0.26
  WS02006112           JUNCTION     0.75     0.96     6.84     0  02:39        0.96
  WS02006113           JUNCTION     0.28     0.41     7.30     0  02:37        0.41
  WS02006115           JUNCTION     0.48     0.67     6.81     0  02:39        0.67
  WS02006116           JUNCTION     0.56     0.75     6.79     0  02:39        0.75
  WS02006230           JUNCTION     0.59     0.87     7.62     0  02:37        0.87
  WS02006231           JUNCTION     0.38     0.56     7.68     0  02:37        0.56
  WS02006232           JUNCTION     0.51     0.69     7.72     0  02:37        0.69
  WS02006234           JUNCTION     0.41     0.60     7.76     0  02:37        0.60
  WS02006235           JUNCTION     0.44     0.62     7.79     0  02:36        0.62
  WS02006238           JUNCTION     0.47     0.65     7.79     0  02:37        0.65
  WS02006240           JUNCTION     0.34     0.54     7.84     0  02:37        0.54
  WS02006242           JUNCTION     0.38     0.60     7.87     0  02:38        0.60
  WS02006243           JUNCTION     0.25     0.47     7.89     0  02:38        0.47
  WS02006245           JUNCTION     0.21     0.45     7.93     0  02:39        0.45
  WS02006247           JUNCTION     0.22     0.47     7.97     0  02:39        0.47
  WS02006248           JUNCTION     0.19     0.40     7.99     0  02:39        0.40
  WS02006249           JUNCTION     0.22     0.44     8.04     0  02:39        0.44
  WS02006239           JUNCTION     0.41     0.60     7.81     0  02:37        0.60
  WS02006251           JUNCTION     0.20     0.43     8.10     0  02:39        0.43
  WS02006252           JUNCTION     0.18     0.35     8.59     0  02:27        0.35
  WS02006253           JUNCTION     0.23     0.45     8.10     0  02:39        0.45
  WS02006256           JUNCTION     1.00     2.35     9.28     0  00:00        1.19
  WS02004138           JUNCTION     0.14     0.17     7.42     0  00:00        0.17
  WS02004407           JUNCTION     0.19     0.27     6.58     0  02:41        0.27
  WS02006228           JUNCTION     0.64     0.89     7.54     0  02:36        0.89
  WS02006229           JUNCTION     0.61     0.87     7.57     0  02:36        0.87
  WS02006280           JUNCTION     0.06     0.13     8.40     0  02:20        0.13
  WS02006284           JUNCTION     0.35     0.46     8.86     0  02:20        0.46
  WS02006287           JUNCTION     0.08     0.19     9.15     0  02:20        0.19
  WSF200               JUNCTION     0.18     0.28     5.51     0  02:43        0.28
  HS02004901           JUNCTION     0.11     0.21    10.04     0  02:18        0.21
  HS02004881           JUNCTION     0.01     0.02     9.05     0  02:19        0.02
  HS02004876           JUNCTION     0.04     0.10     9.13     0  02:19        0.10
  HS02004870           JUNCTION     0.01     0.04     9.32     0  02:20        0.04
  HS02004862           JUNCTION     0.01     0.04     9.42     0  02:21        0.04
  HS02004856           JUNCTION     0.07     0.10     9.53     0  02:20        0.10
  HS02004852           JUNCTION     0.01     0.02     9.53     0  02:21        0.02
  HS02004848           JUNCTION     0.01     0.02     9.62     0  02:19        0.02
  HS02004842           JUNCTION     0.33     0.35     9.62     0  02:19        0.35
  HS02004837           JUNCTION     0.03     0.04     9.62     0  02:19        0.04
  HS02004830           JUNCTION     0.04     0.06     9.53     0  02:20        0.06
  HS02004824           JUNCTION     0.02     0.04     9.44     0  02:23        0.04
  HS02004817           JUNCTION     0.42     0.51     9.36     0  02:20        0.51
  HS02004807           JUNCTION     0.11     0.18     9.35     0  02:20        0.18
  HS02004802           JUNCTION     0.15     0.22     9.35     0  02:20        0.22
  HS02004799           JUNCTION     0.10     0.23     9.44     0  02:18        0.23
  HS02004792           JUNCTION     0.02     0.08     9.61     0  02:17        0.08
  HS02004788           JUNCTION     0.02     0.06     9.96     0  02:19        0.06
  HS02004785           JUNCTION     0.04     0.12    10.02     0  02:18        0.12
  HS02004777           JUNCTION     0.13     0.23    10.03     0  02:18        0.23
  HS02004770           JUNCTION     0.10     0.20    10.04     0  02:18        0.20
  HS02004480           JUNCTION     0.07     0.18     9.42     0  02:19        0.18
  HS02004479           JUNCTION     0.10     0.21     9.42     0  02:19        0.21
  HS02004478           JUNCTION     0.05     0.11     9.34     0  02:20        0.11
  YS02001745           JUNCTION     0.12     0.44     7.96     0  07:50        0.44
  YS02001748           JUNCTION     0.36     0.88     7.96     0  07:50        0.88
  YS02001751           JUNCTION     0.53     1.08     7.96     0  07:50        1.08
  YS02001754           JUNCTION     0.78     1.35     7.96     0  07:50        1.35
  YS02001762           JUNCTION     0.97     1.56     7.96     0  07:50        1.56
  YS02001765           JUNCTION     0.92     1.51     7.96     0  07:49        1.51
  YS02001767           JUNCTION     0.89     1.47     7.96     0  07:49        1.47
  YS02001770           JUNCTION     0.88     1.47     7.96     0  07:49        1.47
  YS02001774           JUNCTION     0.95     1.54     7.96     0  07:49        1.54
  YS02001779           JUNCTION     0.71     1.27     7.96     0  07:49        1.27
  YS02001882           JUNCTION     0.28     0.40     7.12     0  02:57        0.40
  YS02001884           JUNCTION     0.37     0.50     7.12     0  02:56        0.50
  YS02001759           JUNCTION     1.00     1.60     7.96     0  07:50        1.60
  YS02001887           JUNCTION     0.45     0.58     7.12     0  02:56        0.58
  YS02001890           JUNCTION     0.48     0.61     7.12     0  02:57        0.61
  YS02001898           JUNCTION     0.25     0.37     7.10     0  02:58        0.37
  YS02001901           JUNCTION     0.36     0.49     7.10     0  02:58        0.49
  YS02001904           JUNCTION     0.34     0.47     7.10     0  02:58        0.47
  YS02001907           JUNCTION     0.67     0.81     7.10     0  02:57        0.81
  YS02001910           JUNCTION     0.46     0.60     7.10     0  02:57        0.60
  YS02001915           JUNCTION     0.26     0.38     7.10     0  02:58        0.38
  YS02001918           JUNCTION     0.07     0.09     7.15     0  03:03        0.09
  YS02001619           JUNCTION     0.49     1.03     7.96     0  07:50        1.03
  YS02001629           JUNCTION     0.83     1.41     7.96     0  07:50        1.41
  YS02001641           JUNCTION     0.94     1.52     7.96     0  07:50        1.52
  YS02001644           JUNCTION     0.94     1.53     7.96     0  07:50        1.53
  YS02001652           JUNCTION     0.79     1.37     7.96     0  07:50        1.37
  YS02001655           JUNCTION     0.56     1.11     7.96     0  07:50        1.11
  YS02001920           JUNCTION     0.16     0.19     7.20     0  03:03        0.19
  YS02001923           JUNCTION     0.06     0.07     7.33     0  03:02        0.07
  YS02001926           JUNCTION     0.13     0.16     7.61     0  03:02        0.16
  YS02001929           JUNCTION     0.06     0.08     7.77     0  03:01        0.08
  YS02001658           JUNCTION     0.30     0.82     7.96     0  07:50        0.82
  YS02001661           JUNCTION     0.19     0.56     7.96     0  07:50        0.56
  YS02001664           JUNCTION     0.07     0.10     8.03     0  02:48        0.10
  YS02001622           JUNCTION     0.51     1.06     7.96     0  07:50        1.06
  YS02001633           JUNCTION     0.92     1.51     7.96     0  07:50        1.51
  YS02001649           JUNCTION     0.98     1.57     7.96     0  07:50        1.57
  YS02001757           JUNCTION     1.10     1.70     7.96     0  07:50        1.70
  YS02001895           JUNCTION     0.24     0.37     7.11     0  02:57        0.37
  YS02001625           JUNCTION     0.79     1.36     7.96     0  07:50        1.36
  YS02163301           JUNCTION     0.86     1.44     7.96     0  07:50        1.44
  YS02163601           JUNCTION     0.97     1.56     7.96     0  07:50        1.56
  YS02164001           JUNCTION     0.92     1.50     7.96     0  07:50        1.50
  YS02001647           JUNCTION     0.77     1.35     7.96     0  07:50        1.35
  YSB1154              JUNCTION     0.24     0.36     9.42     0  02:19        0.36
  YSB6556              JUNCTION     0.13     0.25     9.42     0  02:18        0.25
  YSB1174              JUNCTION     0.19     0.31     9.42     0  02:19        0.31
  YSB1171              JUNCTION     0.39     0.52     9.42     0  02:19        0.52
  YS02006553           JUNCTION     0.67     0.82     7.10     0  02:58        0.82
  YS02006561           JUNCTION     0.14     0.20     6.86     0  02:58        0.20
  YS02006556           JUNCTION     0.64     0.79     7.10     0  02:58        0.79
  YS02006558           JUNCTION     0.69     0.83     7.10     0  02:58        0.83
  YS02001783           JUNCTION     0.23     0.36     6.50     0  02:58        0.36
  YS02001784           JUNCTION     0.27     0.38     6.45     0  02:58        0.38
  YS02001786           JUNCTION     0.23     0.33     6.36     0  02:59        0.33
  YS02001788           JUNCTION     0.16     0.24     6.22     0  02:59        0.24
  YS02001790           JUNCTION     0.20     0.30     5.94     0  02:59        0.30
  YS02001791           JUNCTION     0.13     0.20     5.67     0  02:59        0.19
  YS02001793           JUNCTION     0.11     0.95     5.78     0  02:59        0.92
  WS02004139           JUNCTION     0.55     0.65     5.56     0  03:31        0.65
  WSC                  OUTFALL      0.26     0.33     1.00     0  03:29        0.33
  3                    OUTFALL      0.07     0.23     6.23     0  00:00        0.19
  4                    OUTFALL      0.00     0.00     7.00     0  00:00        0.00
  5                    OUTFALL      0.00     0.00     5.00     0  00:00        0.00
  JK-storage           STORAGE      0.92     4.73     5.53     0  02:58        4.71
  CC-storage           STORAGE      0.36     0.96     7.96     0  07:50        0.96
  XR-storage           STORAGE      5.82     7.72     5.72     0  04:22        7.72
  
  
  *******************
  Node Inflow Summary
  *******************
  
  -------------------------------------------------------------------------------------------------
                                  Maximum  Maximum                  Lateral       Total        Flow
                                  Lateral    Total  Time of Max      Inflow      Inflow     Balance
                                   Inflow   Inflow   Occurrence      Volume      Volume       Error
  Node                 Type           LPS      LPS  days hr:min    10^6 ltr    10^6 ltr     Percent
  -------------------------------------------------------------------------------------------------
  WS02001211           JUNCTION      7.35   292.79     0  03:38       0.207        5.97       0.487
  WS02001212           JUNCTION      0.00   292.94     0  03:37           0        5.94       0.271
  WS02001213           JUNCTION      0.00   293.08     0  03:37           0        5.92       0.318
  WS02003069           JUNCTION      0.32   689.07     0  03:27     0.00902          11       0.179
  WS02003072           JUNCTION      0.00   689.04     0  03:28           0          11       0.240
  WS02003073           JUNCTION      1.82   690.86     0  03:29      0.0514          11       0.253
  WS02003060           JUNCTION     16.53   688.77     0  03:27       0.466          11       0.173
  WS02003066           JUNCTION      0.00   440.64     0  02:43           0        4.68       0.061
  WS02003059           JUNCTION      0.00   293.34     0  03:37           0         5.9       0.508
  WS02003067           JUNCTION      0.00   440.57     0  02:43           0        4.68       0.141
  WS02004401           JUNCTION      0.00   447.54     0  02:39           0        4.85       0.318
  WS02004402           JUNCTION      0.00   446.78     0  02:39           0        4.83       0.311
  WS02004403           JUNCTION      0.00   446.32     0  02:40           0        4.82       0.291
  WS02004404           JUNCTION      0.16   446.22     0  02:40     0.00457        4.81       0.229
  WS02004406           JUNCTION      0.00   446.04     0  02:40           0        4.78       0.563
  WS02004409           JUNCTION      0.00   445.87     0  02:41           0        4.75       0.190
  WS02004410           JUNCTION      0.00   444.21     0  02:41           0        4.74       0.231
  WS02004411           JUNCTION      0.00   442.76     0  02:41           0        4.73       0.250
  WS02004412           JUNCTION      0.00   441.72     0  02:42           0        4.72       0.290
  WS02004413           JUNCTION      0.00   440.95     0  02:42           0        4.71       0.458
  WS02004405           JUNCTION      0.04   446.15     0  02:40     0.00107         4.8       0.348
  WS02006109           JUNCTION      1.23   448.10     0  02:36      0.0347        4.91       0.347
  WS02006110           JUNCTION      0.00   448.10     0  02:36           0        4.89       0.287
  WS02006111           JUNCTION      0.00   460.39     0  02:37           0        4.88       0.049
  WS02006112           JUNCTION      7.50   453.48     0  02:37      0.0223        4.89       0.437
  WS02006113           JUNCTION      0.00   448.18     0  02:37           0        4.88       0.111
  WS02006115           JUNCTION      0.00   450.68     0  02:37           0        4.87       0.262
  WS02006116           JUNCTION      0.00   448.75     0  02:38           0        4.86       0.266
  WS02006230           JUNCTION     10.28   328.03     0  03:14        0.29        4.11       0.267
  WS02006231           JUNCTION      0.00   317.21     0  03:13           0        3.82       0.097
  WS02006232           JUNCTION      0.00   316.97     0  03:12           0        3.84       0.293
  WS02006234           JUNCTION      0.00   316.69     0  03:11           0        3.84       0.067
  WS02006235           JUNCTION      0.00   316.54     0  03:11           0        3.87       0.197
  WS02006238           JUNCTION      0.00   252.78     0  02:40           0        1.49       0.265
  WS02006240           JUNCTION      0.00   240.54     0  02:41           0        1.47       0.258
  WS02006242           JUNCTION      0.00   235.38     0  02:41           0        1.47       0.298
  WS02006243           JUNCTION      0.00   230.28     0  02:42           0        1.46      -0.272
  WS02006245           JUNCTION      0.00   227.97     0  02:42           0        1.46       0.156
  WS02006247           JUNCTION      0.00   226.35     0  02:42           0        1.46       0.008
  WS02006248           JUNCTION      0.00   226.63     0  02:31           0        1.46      -0.095
  WS02006249           JUNCTION      0.00   227.81     0  02:31           0        1.46       0.162
  WS02006239           JUNCTION      0.00   246.66     0  02:40           0        1.48       0.329
  WS02006251           JUNCTION      0.08   231.33     0  02:28     0.00217        1.46      -0.007
  WS02006252           JUNCTION      0.00   200.00     0  02:27           0        1.33       0.005
  WS02006253           JUNCTION      1.15    32.79     0  02:19     0.00288       0.127      -0.133
  WS02006256           JUNCTION      0.00   600.00     0  00:00           0        4.01       0.048
  WS02004138           JUNCTION      0.00   285.00     0  00:00           0        5.79       0.074
  WS02004407           JUNCTION      0.00   445.96     0  02:40           0        4.75       0.089
  WS02006228           JUNCTION      0.00   446.87     0  02:36           0        4.89       0.231
  WS02006229           JUNCTION      0.00   446.89     0  02:36           0         4.9       0.173
  WS02006280           JUNCTION      0.00   171.51     0  02:20           0       0.797       0.009
  WS02006284           JUNCTION      0.10   171.50     0  02:20      0.0027       0.798       0.135
  WS02006287           JUNCTION      0.00   171.42     0  02:20           0       0.796       0.090
  WSF200               JUNCTION      0.00   440.62     0  02:43           0        4.67       0.047
  HS02004901           JUNCTION      9.29     9.29     0  02:11      0.0268      0.0269       6.976
  HS02004881           JUNCTION      3.76    31.91     0  02:19      0.0117       0.122       0.202
  HS02004876           JUNCTION      5.96    28.45     0  02:19      0.0224       0.111       0.475
  HS02004870           JUNCTION      6.61    22.61     0  02:19      0.0221      0.0886       0.120
  HS02004862           JUNCTION      5.46    16.44     0  02:20      0.0277      0.0667       0.252
  HS02004856           JUNCTION      4.90    11.02     0  02:19      0.0166      0.0405       3.683
  HS02004852           JUNCTION      0.00     6.43     0  02:19           0      0.0239       0.208
  HS02004848           JUNCTION     10.80    10.80     0  02:22      0.0525      0.0525       0.082
  HS02004842           JUNCTION      0.00     4.72     0  02:32           0      0.0416      45.432
  HS02004837           JUNCTION     16.94    21.03     0  02:18       0.217       0.246       0.332
  HS02004830           JUNCTION      0.15    21.17     0  02:19     0.00423       0.236       0.523
  HS02004824           JUNCTION     12.15    33.17     0  02:23      0.0688       0.304       0.177
  HS02004817           JUNCTION      0.60    33.76     0  02:23      0.0169        0.32       5.485
  HS02004807           JUNCTION     12.45    45.10     0  02:21      0.0407       0.344       1.242
  HS02004802           JUNCTION      0.00    45.25     0  02:22           0        0.34       1.206
  HS02004799           JUNCTION      9.57   107.59     0  02:17      0.0329       0.406       0.562
  HS02004792           JUNCTION     42.89    98.23     0  02:17       0.145       0.373       0.111
  HS02004788           JUNCTION     14.66    57.19     0  02:18      0.0928       0.229       0.169
  HS02004785           JUNCTION      0.15    42.95     0  02:17     0.00423       0.139       0.348
  HS02004777           JUNCTION      0.03    43.32     0  02:16    0.000846       0.139       3.870
  HS02004770           JUNCTION     36.31    44.48     0  02:14       0.114        0.14       2.269
  HS02004480           JUNCTION      0.00   126.85     0  02:18           0       0.472       0.150
  HS02004479           JUNCTION      0.00    19.65     0  02:20           0      0.0784       0.939
  HS02004478           JUNCTION      0.00   171.42     0  02:20           0       0.797       0.079
  YS02001745           JUNCTION     60.68    79.75     0  06:23       0.678       0.713       0.890
  YS02001748           JUNCTION      0.04   159.23     0  03:55     0.00127       0.829       2.434
  YS02001751           JUNCTION      0.01   199.67     0  03:19     0.00031       0.777       3.133
  YS02001754           JUNCTION      0.26   181.42     0  03:18     0.00733       0.717       3.577
  YS02001762           JUNCTION      0.00   130.68     0  03:08           0       0.725       2.974
  YS02001765           JUNCTION      0.00   126.80     0  03:07           0       0.726       3.346
  YS02001767           JUNCTION      0.54   126.62     0  04:19      0.0151       0.753       4.933
  YS02001770           JUNCTION     78.26   122.44     0  04:19         0.8       0.915       3.623
  YS02001774           JUNCTION      0.00    90.81     0  04:15           0       0.247      11.215
  YS02001779           JUNCTION      0.01    84.04     0  04:19    0.000141       0.112      15.528
  YS02001882           JUNCTION      0.00     3.32     0  02:09           0     0.00451      54.462
  YS02001884           JUNCTION      0.00     9.46     0  02:08           0      0.0182      34.714
  YS02001759           JUNCTION     76.54   191.89     0  03:09       0.748        1.44       1.594
  YS02001887           JUNCTION    101.04   101.04     0  02:46         0.9       0.909       0.772
  YS02001890           JUNCTION      0.00   100.42     0  02:47           0       0.887       0.869
  YS02001898           JUNCTION      0.00   100.01     0  02:50           0       0.876       0.235
  YS02001901           JUNCTION      0.00    99.91     0  02:51           0       0.875       0.611
  YS02001904           JUNCTION      0.00    99.58     0  02:53           0       0.874       0.570
  YS02001907           JUNCTION      0.00   181.34     0  03:02           0        1.87       1.179
  YS02001910           JUNCTION      0.00    82.56     0  03:00           0           1       0.999
  YS02001915           JUNCTION     54.47    82.30     0  03:01       0.582        1.01       0.432
  YS02001918           JUNCTION      0.00    28.05     0  03:03           0       0.424       0.241
  YS02001619           JUNCTION     52.94    52.94     0  03:01       0.574       0.579       2.172
  YS02001629           JUNCTION      0.00   107.99     0  04:15           0       0.538       5.655
  YS02001641           JUNCTION      0.00   124.92     0  03:07           0        1.06       1.823
  YS02001644           JUNCTION     57.62   182.98     0  03:09       0.651        1.69       1.445
  YS02001652           JUNCTION      0.00   130.85     0  03:19           0       0.691       3.440
  YS02001655           JUNCTION      0.15   183.99     0  04:03     0.00434       0.739       3.467
  YS02001920           JUNCTION      2.87    28.07     0  03:02      0.0809       0.426       0.451
  YS02001923           JUNCTION      0.04    25.20     0  03:02     0.00106       0.346       0.079
  YS02001926           JUNCTION      0.05    25.23     0  03:01     0.00147       0.347       0.569
  YS02001929           JUNCTION     25.19    25.19     0  03:01       0.345       0.345       0.076
  YS02001658           JUNCTION      0.00   149.06     0  04:03           0       0.781       2.664
  YS02001661           JUNCTION      0.00    71.50     0  02:48           0       0.688       1.775
  YS02001664           JUNCTION     71.50    71.50     0  02:48       0.656       0.656       0.019
  YS02001622           JUNCTION      0.00    76.39     0  04:14           0       0.589       5.709
  YS02001633           JUNCTION     58.57   131.90     0  03:16        0.67        1.12       2.947
  YS02001649           JUNCTION      0.00   321.70     0  03:16           0        2.28       1.653
  YS02001757           JUNCTION      0.00   512.43     0  03:13           0        4.23       2.216
  YS02001895           JUNCTION      0.00   100.14     0  02:50           0       0.879       0.402
  YS02001625           JUNCTION      0.00   124.08     0  04:15           0       0.596       6.996
  YS02163301           JUNCTION      0.00    86.56     0  03:09           0       0.475       5.284
  YS02163601           JUNCTION      0.11   138.82     0  03:23      0.0031        1.08       2.779
  YS02164001           JUNCTION      0.00   132.30     0  03:15           0        1.06       1.829
  YS02001647           JUNCTION      0.00   183.34     0  03:16           0        1.65       1.703
  YSB1154              JUNCTION     10.60    10.60     0  02:16      0.0398      0.0412       3.632
  YSB6556              JUNCTION      0.00    10.59     0  02:18           0      0.0422       3.038
  YSB1174              JUNCTION     10.59    10.59     0  02:11      0.0291      0.0301       4.450
  YSB1171              JUNCTION      0.00    19.63     0  02:17           0      0.0779       8.830
  YS02006553           JUNCTION      0.00   181.65     0  03:02           0        1.85       0.766
  YS02006561           JUNCTION      0.00   266.04     0  02:58           0        2.62       0.023
  YS02006556           JUNCTION      0.00   181.86     0  03:02           0        1.86       0.551
  YS02006558           JUNCTION     85.54   266.05     0  02:58       0.819        2.65       0.168
  YS02001783           JUNCTION      0.00   266.04     0  02:58           0        2.62       0.054
  YS02001784           JUNCTION      1.06   267.10     0  02:58      0.0299        2.65       0.090
  YS02001786           JUNCTION      0.06   267.15     0  02:59     0.00159        2.65       0.087
  YS02001788           JUNCTION      0.07   267.21     0  02:59       0.002        2.65       0.050
  YS02001790           JUNCTION      0.15   267.37     0  02:59     0.00437        2.65       0.063
  YS02001791           JUNCTION      0.00   267.36     0  02:59           0        2.65       0.030
  YS02001793           JUNCTION      0.00   916.71     0  03:02           0        2.75       0.080
  WS02004139           JUNCTION      0.32   290.33     0  00:00     0.00905        5.79       0.565
  WSC                  OUTFALL       0.00   690.86     0  03:29           0          11       0.000
  3                    OUTFALL       0.00   597.65     0  00:00           0        1.61       0.000
  4                    OUTFALL       0.00     0.00     0  00:00           0           0       0.000 ltr
  5                    OUTFALL       0.00     0.00     0  00:00           0           0       0.000 ltr
  JK-storage           STORAGE       0.00  1145.90     0  03:02           0         2.9     -29.496
  CC-storage           STORAGE       0.00   439.52     0  03:06           0        4.06       1.350
  XR-storage           STORAGE     298.58   298.58     0  02:58        6.77        7.37      -0.001
  
  
  **********************
  Node Surcharge Summary
  **********************
  
  Surcharging occurs when water rises above the top of the highest conduit.
  ---------------------------------------------------------------------
                                               Max. Height   Min. Depth
                                   Hours       Above Crown    Below Rim
  Node                 Type      Surcharged         Meters       Meters
  ---------------------------------------------------------------------
  WS02006109           JUNCTION        0.42          0.052        1.768
  WS02006256           JUNCTION        0.01          1.050        0.000
  WS02006228           JUNCTION        0.36          0.058        2.142
  YS02001751           JUNCTION        0.72          0.082        1.118
  YS02001754           JUNCTION        2.19          0.303        0.847
  YS02001762           JUNCTION        3.83          0.561        0.589
  YS02001765           JUNCTION        3.36          0.511        0.589
  YS02001767           JUNCTION        3.06          0.472        0.558
  YS02001770           JUNCTION        2.89          0.436        0.484
  YS02001774           JUNCTION        3.68          0.539        0.511
  YS02001779           JUNCTION        1.98          0.275        0.405
  YS02001759           JUNCTION        3.99          0.597        0.613
  YS02001619           JUNCTION        0.29          0.032        0.578
  YS02001629           JUNCTION        0.30          0.032        0.438
  YS02001641           JUNCTION        3.49          0.524        0.576
  YS02001644           JUNCTION        3.56          0.529        0.391
  YS02001652           JUNCTION        2.36          0.335        0.795
  YS02001655           JUNCTION        0.97          0.111        1.089
  YS02001622           JUNCTION        0.51          0.057        0.563
  YS02001633           JUNCTION        3.11          0.487        0.573
  YS02001649           JUNCTION        3.87          0.571        0.479
  YS02001757           JUNCTION        5.15          0.700        0.510
  YS02001625           JUNCTION        2.50          0.357        0.423
  YS02163301           JUNCTION        2.92          0.444        0.586
  YS02163601           JUNCTION        3.84          0.563        0.517
  YS02164001           JUNCTION        3.26          0.503        0.597
  YS02001647           JUNCTION        2.46          0.351        0.549
  
  
  *********************
  Node Flooding Summary
  *********************
  
  Flooding refers to all water that overflows a node, whether it ponds or not.
  --------------------------------------------------------------------------
                                                             Total   Maximum
                                 Maximum   Time of Max       Flood    Ponded
                        Hours       Rate    Occurrence      Volume     Depth
  Node                 Flooded       LPS   days hr:min    10^6 ltr    Meters
  --------------------------------------------------------------------------
  WS02006256              0.01    406.11      0  00:00       0.001     0.000
  XR-storage              3.45    163.25      0  04:22       0.662     0.000
  
  
  **********************
  Storage Volume Summary
  **********************
  
  --------------------------------------------------------------------------------------------------
                         Average     Avg  Evap Exfil       Maximum     Max    Time of Max    Maximum
                          Volume    Pcnt  Pcnt  Pcnt        Volume    Pcnt     Occurrence    Outflow
  Storage Unit           1000 m3    Full  Loss  Loss       1000 m3    Full    days hr:min        LPS
  --------------------------------------------------------------------------------------------------
  JK-storage               0.046      16     0     0         0.238      82       0  02:58     942.37
  CC-storage               1.007       6     0     0         2.675      17       0  07:50     200.00
  XR-storage               0.699      75     0     0         0.926     100       0  04:22     285.00
  
  
  ***********************
  Outfall Loading Summary
  ***********************
  
  -----------------------------------------------------------
                         Flow       Avg       Max       Total
                         Freq      Flow      Flow      Volume
  Outfall Node           Pcnt       LPS       LPS    10^6 ltr
  -----------------------------------------------------------
  WSC                   99.99    449.21    690.86      10.978
  3                     81.10    123.10    597.65       1.609
  4                      0.00      0.00      0.00       0.000
  5                      0.00      0.00      0.00       0.000
  -----------------------------------------------------------
  System                45.27    572.31   1082.83      12.587
  
  
  ********************
  Link Flow Summary
  ********************
  
  -----------------------------------------------------------------------------
                                 Maximum  Time of Max   Maximum    Max/    Max/
                                  |Flow|   Occurrence   |Veloc|    Full    Full
  Link                 Type          LPS  days hr:min     m/sec    Flow   Depth
  -----------------------------------------------------------------------------
  WS02003066WSF200     CONDUIT    440.62     0  02:43      2.61    0.07    0.21
  WS02006287WS02006284 CONDUIT    171.41     0  02:20      1.52    0.08    0.20
  WS02006284WS02006280 CONDUIT    171.51     0  02:20      1.77    0.07    0.18
  WS02006280WS02006229 CONDUIT    171.51     0  02:20      2.83    0.04    0.13
  WS02006229WS02006228 CONDUIT    446.87     0  02:36      0.89    1.48    1.00
  WS02006256WS02006235 CONDUIT    177.52     0  00:01      2.73    1.88    1.00
  WS02006253WS02006251 CONDUIT     32.81     0  02:21      0.45    0.10    0.62
  WS02006252WS02006251 CONDUIT    200.47     0  02:27      1.97    0.74    0.76
  WS02006251WS02006249 CONDUIT    227.81     0  02:31      0.96    0.66    0.62
  WS02006249WS02006248 CONDUIT    226.63     0  02:31      1.04    1.24    0.59
  WS02006248WS02006247 CONDUIT    226.35     0  02:42      1.00    0.49    0.61
  WS02006247WS02006245 CONDUIT    227.97     0  02:42      0.96    1.81    0.64
  WS02006245WS02006243 CONDUIT    230.28     0  02:42      1.00    0.68    0.65
  WS02006243WS02006242 CONDUIT    235.38     0  02:41      0.85    0.50    0.74
  WS02006242WS02006240 CONDUIT    240.54     0  02:41      0.79    0.96    0.81
  WS02006240WS02006239 CONDUIT    246.66     0  02:40      0.86    0.78    0.79
  WS02006239WS02006238 CONDUIT    252.78     0  02:40      0.76    0.81    0.88
  WS02006238WS02006235 CONDUIT    256.20     0  02:40      1.32    0.57    0.91
  WS02006235WS02006234 CONDUIT    316.69     0  03:11      0.94    3.34    0.85
  WS02006234WS02006232 CONDUIT    316.97     0  03:12      1.17    0.64    0.92
  WS02006232WS02006231 CONDUIT    317.21     0  03:13      0.94    0.66    0.88
  WS02006231WS02006230 CONDUIT    317.75     0  03:14      1.28    4.82    0.75
  WS02006230WS02006229 CONDUIT    329.04     0  03:14      0.86    7.32    1.00
  WS02006228WS02006109 CONDUIT    446.87     0  02:36      0.89    1.95    1.00
  WS02006116WS02004401 CONDUIT    447.54     0  02:39      0.69    0.62    0.77
  WS02006115WS02006116 CONDUIT    448.75     0  02:38      0.80    0.58    0.68
  WS02006113WS02006111 CONDUIT    460.39     0  02:37      2.30    0.55    0.42
  WS02006112WS02006115 CONDUIT    450.68     0  02:37      0.67    0.27    0.81
  WS02006111WS02006112 CONDUIT    449.42     0  02:37      1.28    0.21    0.66
  WS02006110WS02006113 CONDUIT    448.18     0  02:37      1.10    0.41    0.76
  WS02006109WS02006110 CONDUIT    448.10     0  02:36      0.90    0.86    0.96
  WS02004411WS02004412 CONDUIT    441.72     0  02:42      0.84    0.63    0.63
  WS02004401WS02004402 CONDUIT    446.78     0  02:39      0.67    0.54    0.79
  WS02004413WS02003067 CONDUIT    440.57     0  02:43      1.00    0.19    0.55
  WS02004412WS02004413 CONDUIT    440.95     0  02:42      0.73    0.30    0.72
  WS02004410WS02004411 CONDUIT    442.76     0  02:41      0.87    0.60    0.62
  WS02004409WS02004410 CONDUIT    444.21     0  02:41      0.90    0.57    0.61
  WS02004407WS02004409 CONDUIT    445.87     0  02:41      1.38    0.16    0.43
  WS02004406WS02004407 CONDUIT    445.96     0  02:40      0.93    0.20    0.59
  WS02004405WS02004406 CONDUIT    446.04     0  02:40      0.60    0.88    0.90
  WS02004404WS02004405 CONDUIT    446.11     0  02:40      0.60    4.37    0.90
  WS02004403WS02004404 CONDUIT    446.06     0  02:40      0.62    0.32    0.87
  WS02004402WS02004403 CONDUIT    446.32     0  02:40      0.65    0.64    0.82
  WS02004139WS02001211 CONDUIT    285.45     0  03:38      0.80    0.36    0.52
  WS02004138WS02004139 CONDUIT    290.01     0  00:00      3.34    0.06    0.38
  WS02003067WS02003066 CONDUIT    440.64     0  02:43      1.08    0.14    0.39
  WS02001213WS02003059 CONDUIT    293.34     0  03:37      0.80    0.48    0.68
  WS02001212WS02001213 CONDUIT    293.08     0  03:37      1.19    0.45    0.38
  WS02001211WS02001212 CONDUIT    292.94     0  03:37      0.67    0.22    0.56
  WS02003072WS02003073 CONDUIT    689.04     0  03:29      1.55    1.49    0.42
  WS02003069WS02003072 CONDUIT    689.04     0  03:28      1.47    0.33    0.43
  WS02003060WS02003069 CONDUIT    688.75     0  03:27      1.73    0.27    0.38
  WS02003059WS02003060 CONDUIT    293.71     0  03:36      0.82    0.19    0.58
  HS02004901HS02004770 CONDUIT      8.47     0  02:17      0.04    0.03    0.30
  HS02004876HS02004881 CONDUIT     28.49     0  02:20      0.49    0.30    0.08
  HS02004870HS02004876 CONDUIT     22.59     0  02:20      0.34    0.01    0.09
  HS02004842HS02004848 CONDUIT      4.72     0  02:32      0.03    0.00    0.27
  HS02004837HS02004842 CONDUIT      4.87     0  02:33      0.41    0.00    0.28
  HS02004830HS02004837 CONDUIT     21.02     0  02:19      0.42    0.02    0.07
  HS02004824HS02004830 CONDUIT     21.16     0  02:20      0.46    0.03    0.07
  HS02004817HS02004824 CONDUIT     33.16     0  02:23      0.17    0.01    0.39
  HS02004770HS02004777 CONDUIT     43.29     0  02:16      0.20    0.08    0.31
  HS02004799HS02004480 CONDUIT    107.40     0  02:18      0.54    0.14    0.28
  HS02004792HS02004799 CONDUIT     98.18     0  02:17      0.62    0.06    0.23
  HS02004788HS02004792 CONDUIT     57.15     0  02:19      0.78    0.04    0.11
  HS02004785HS02004788 CONDUIT     42.82     0  02:19      0.47    0.32    0.13
  HS02004777HS02004785 CONDUIT     42.80     0  02:17      0.24    0.05    0.25
  HS02004480HS02004478 CONDUIT    126.82     0  02:19      0.89    0.53    0.20
  HS02004479HS02004480 CONDUIT     19.81     0  02:21      0.16    0.02    0.28
  HS02004862HS02004870 CONDUIT     16.40     0  02:21      0.43    0.02    0.05
  HS02004848HS02004852 CONDUIT      6.43     0  02:19      0.28    0.01    0.03
  HS02004856HS02004862 CONDUIT     11.00     0  02:20      0.31    0.01    0.05
  HS02004852HS02004856 CONDUIT      6.40     0  02:21      0.10    0.01    0.09
  HS02004802HS02004478 CONDUIT     45.49     0  02:23      0.28    0.04    0.24
  HS02004478WS02006287 CONDUIT    171.42     0  02:20      1.22    0.05    0.16
  HS02004817HS02004807 CONDUIT     34.14     0  02:25      0.10    0.02    0.49
  HS02004807HS02004802 CONDUIT     45.25     0  02:22      0.23    0.09    0.28
  YS02001759YS02001757 CONDUIT    201.05     0  03:13      0.26    0.14    1.00
  YS02001762YS02001759 CONDUIT    123.09     0  03:14      0.18    0.14    1.00
  YS02001765YS02001762 CONDUIT    130.68     0  03:08      0.23    0.12    1.00
  YS02001770YS02001767 CONDUIT    126.09     0  04:19      0.31    0.50    1.00
  YS02001774YS02001770 CONDUIT     90.81     0  04:15      0.13    0.06    1.00
  YS02001779YS02001774 CONDUIT     84.04     0  04:19      0.12    0.04    1.00
  YS02001649YS02001757 CONDUIT    332.62     0  03:15      0.43    0.20    1.00
  YS02001767YS02001765 CONDUIT    126.80     0  03:07      0.25    0.16    1.00
  YS02006561YS02001783 CONDUIT    266.04     0  02:58      1.71    0.14    0.35
  YS02001783YS02001784 CONDUIT    266.04     0  02:58      1.17    0.37    0.46
  YS02001784YS02001785 CONDUIT    267.09     0  02:59      1.24    0.62    0.44
  YS02001788YS02001790 CONDUIT    267.21     0  02:59      1.80    0.20    0.34
  YS02001790YS02001791 CONDUIT    267.36     0  02:59      2.12    0.29    0.31
  YS02001791YS02001793 CONDUIT    299.76     0  02:59      4.17    0.13    0.62
  YS02001910YS02001907 CONDUIT     82.63     0  03:01      0.49    0.05    0.70
  YS02001786YS02001788 CONDUIT    267.14     0  02:59      1.66    0.51    0.36
  YS02001915YS02001910 CONDUIT     82.56     0  03:00      0.44    0.04    0.49
  YS02001918YS02001915 CONDUIT     28.03     0  03:03      0.44    0.02    0.23
  YS02001923YS02001920 CONDUIT     25.20     0  03:02      0.41    0.01    0.13
  YS02001926YS02001923 CONDUIT     25.16     0  03:02      0.45    0.04    0.12
  YS02001929YS02001926 CONDUIT     25.17     0  03:01      0.48    0.01    0.12
  YS02001920YS02001918 CONDUIT     28.05     0  03:03      0.43    0.03    0.14
  YS02001629YS02163301 CONDUIT     86.56     0  03:09      0.13    0.11    1.00
  YS02001619YS02001622 CONDUIT     76.39     0  04:14      0.62    0.11    1.00
  YS02001622YS02001625 CONDUIT     83.84     0  04:15      0.23    0.04    1.00
  YS02001625YS02001629 CONDUIT    107.99     0  04:15      0.23    0.05    1.00
  YS02163301YS02001633 CONDUIT     79.22     0  03:16      0.11    0.07    1.00
  YS02163601YS02164001 CONDUIT    132.30     0  03:15      0.18    0.12    1.00
  YS02164001YS02001641 CONDUIT    124.92     0  03:07      0.17    0.17    1.00
  YS02001641YS02001644 CONDUIT    130.93     0  03:16      0.17    0.42    1.00
  YS02001647YS02001649 CONDUIT    202.51     0  03:08      0.29    0.11    1.00
  YS02006553YS02006556 CONDUIT    181.86     0  03:02      0.28    0.16    0.78
  YS02006556YS02006558 CONDUIT    182.03     0  03:03      0.27    0.14    0.81
  YSB6556YSB1171       CONDUIT     10.69     0  02:22      0.05    0.01    0.55
  YS02001907YS02006553 CONDUIT    181.65     0  03:02      0.23    0.21    0.89
  YS02006558YS02006561 CONDUIT    266.04     0  02:58      2.20    0.59    0.44
  YS02001633YS02163601 CONDUIT    138.71     0  03:23      0.19    0.15    1.00
  YS02001644YS02001647 CONDUIT    183.34     0  03:16      0.27    0.11    1.00
  YS02001745YS02001748 CONDUIT     96.39     0  06:22      1.35    0.04    0.62
  YS02001748YS02001751 CONDUIT    199.65     0  03:19      1.04    0.10    0.94
  YS02001751YS02001754 CONDUIT     95.73     0  03:03      0.93    0.05    1.00
  YS02001754YS02001757 CONDUIT    203.76     0  03:24      0.33    0.08    1.00
  YS02001882YS02001884 CONDUIT      3.32     0  02:09      0.06    0.00    0.42
  YS02001884YS02001887 CONDUIT      9.46     0  02:08      0.05    0.01    0.52
  YS02001890YS02001895 CONDUIT    100.14     0  02:50      0.26    0.05    0.49
  YS02001895YS02001898 CONDUIT    100.01     0  02:50      0.46    0.17    0.35
  YS02001898YS02001901 CONDUIT     99.91     0  02:51      0.31    0.06    0.43
  YS02001901YS02001904 CONDUIT     99.58     0  02:53      0.27    0.15    0.48
  YS02001904YS02001907 CONDUIT     99.63     0  02:54      0.19    0.03    0.64
  YS02001887YS02001890 CONDUIT    100.42     0  02:47      0.22    0.17    0.57
  YS02001652YS02001649 CONDUIT    179.88     0  03:15      0.30    0.09    1.00
  YS02001655YS02001652 CONDUIT    105.28     0  03:07      1.00    0.05    1.00
  YS02001658YS02001655 CONDUIT    183.84     0  04:03      1.20    0.08    0.91
  YS02001661YS02001658 CONDUIT     78.42     0  06:06      1.38    0.03    0.65
  YS02001664YS02001661 CONDUIT     71.50     0  02:48      1.02    0.02    0.30
  YSB1154YSB6556       CONDUIT     10.59     0  02:18      0.19    0.02    0.44
  YSB1174YSB1171       CONDUIT      9.82     0  02:12      0.05    0.02    0.56
  YSB1171HS02004479    CONDUIT     19.65     0  02:20      0.54    0.01    0.43
  HS02004881HS02006253 CONDUIT     31.91     0  02:19      1.54    0.01    0.09
  YS02001793JiankangQianchi CONDUIT   1145.90     0  03:02     12.02    0.09    0.98
  YS02001757CaochengTiaoxuchi CONDUIT    439.52     0  03:06      0.97    0.19    0.98
  WSF200WS02003060     CONDUIT    440.86     0  02:43      1.72    0.10    0.29
  1                    CONDUIT    690.86     0  03:29      3.01    0.24    0.33
  2                    CONDUIT      0.00     0  00:00      0.00    0.00    0.00
  3                    CONDUIT    597.65     0  00:00     10.05    0.95    0.86
  4                    CONDUIT      0.00     0  00:00      0.00    0.00    0.00
  CC-Pump-1            PUMP       200.00     0  02:27              1.00
  CC-Pump-2            PUMP         0.00     0  00:00              0.00
  JK-Pump-1            PUMP       300.00     0  00:00              1.00
  JK-Pump-2            PUMP       300.00     0  00:00              1.00
  XR-Pump-1            PUMP        95.00     0  02:20              1.00
  XR-Pump-2            PUMP        95.00     0  00:00              1.00
  XR-Pump-3            PUMP        95.00     0  00:00              1.00
  XR-Pump-4            PUMP        95.00     0  00:00              1.00
  
  
  ***************************
  Flow Classification Summary
  ***************************
  
  -------------------------------------------------------------------------------------
                      Adjusted    ---------- Fraction of Time in Flow Class ---------- 
                       /Actual         Up    Down  Sub   Sup   Up    Down  Norm  Inlet 
  Conduit               Length    Dry  Dry   Dry   Crit  Crit  Crit  Crit  Ltd   Ctrl  
  -------------------------------------------------------------------------------------
  WS02003066WSF200        1.00   0.10  0.00  0.00  0.00  0.90  0.00  0.00  0.71  0.00
  WS02006287WS02006284    1.00   0.05  0.02  0.00  0.62  0.31  0.00  0.00  0.78  0.00
  WS02006284WS02006280    1.00   0.06  0.00  0.00  0.00  0.00  0.00  0.94  0.00  0.00
  WS02006280WS02006229    1.00   0.06  0.00  0.00  0.00  0.00  0.00  0.94  0.00  0.00
  WS02006229WS02006228    1.00   0.00  0.00  0.00  0.98  0.00  0.00  0.02  0.00  0.00
  WS02006256WS02006235    1.00   0.00  0.00  0.00  0.99  0.01  0.00  0.00  0.00  0.00
  WS02006253WS02006251    1.00   0.03  0.02  0.00  0.95  0.00  0.00  0.00  0.00  0.00
  WS02006252WS02006251    1.00   0.11  0.05  0.00  0.00  0.00  0.84  0.00  0.00  0.00
  WS02006251WS02006249    1.00   0.00  0.00  0.00  1.00  0.00  0.00  0.00  0.71  0.00
  WS02006249WS02006248    1.00   0.00  0.02  0.00  0.49  0.00  0.48  0.00  0.00  0.00
  WS02006248WS02006247    1.00   0.03  0.00  0.00  0.96  0.00  0.00  0.01  0.60  0.00
  WS02006247WS02006245    1.00   0.03  0.00  0.00  0.95  0.00  0.00  0.02  0.00  0.00
  WS02006245WS02006243    1.00   0.02  0.00  0.00  0.91  0.00  0.00  0.06  0.07  0.00
  WS02006243WS02006242    1.00   0.01  0.01  0.00  0.98  0.00  0.00  0.00  0.27  0.00
  WS02006242WS02006240    1.00   0.01  0.00  0.00  0.99  0.00  0.00  0.00  0.00  0.00
  WS02006240WS02006239    1.00   0.00  0.00  0.00  0.93  0.00  0.00  0.06  0.02  0.00
  WS02006239WS02006238    1.00   0.00  0.00  0.00  1.00  0.00  0.00  0.00  0.00  0.00
  WS02006238WS02006235    1.00   0.00  0.00  0.00  1.00  0.00  0.00  0.00  0.00  0.00
  WS02006235WS02006234    1.00   0.00  0.00  0.00  0.93  0.00  0.07  0.00  0.00  0.00
  WS02006234WS02006232    1.00   0.00  0.00  0.00  0.99  0.01  0.00  0.00  0.00  0.00
  WS02006232WS02006231    1.00   0.00  0.01  0.00  0.99  0.00  0.01  0.00  0.00  0.00
  WS02006231WS02006230    1.00   0.01  0.00  0.00  0.35  0.00  0.65  0.00  0.00  0.00
  WS02006230WS02006229    1.00   0.00  0.00  0.00  0.98  0.00  0.00  0.02  0.01  0.00
  WS02006228WS02006109    1.00   0.00  0.00  0.00  0.99  0.00  0.00  0.00  0.00  0.00
  WS02006116WS02004401    1.00   0.03  0.00  0.00  0.97  0.00  0.00  0.00  0.00  0.00
  WS02006115WS02006116    1.00   0.03  0.00  0.00  0.95  0.00  0.00  0.02  0.01  0.00
  WS02006113WS02006111    1.00   0.03  0.00  0.00  0.00  0.97  0.00  0.00  0.19  0.00
  WS02006112WS02006115    1.00   0.03  0.00  0.00  0.97  0.00  0.00  0.00  0.00  0.00
  WS02006111WS02006112    1.00   0.03  0.00  0.00  0.97  0.00  0.00  0.00  0.98  0.00
  WS02006110WS02006113    1.00   0.02  0.00  0.00  0.97  0.00  0.00  0.00  0.00  0.00
  WS02006109WS02006110    1.00   0.00  0.02  0.00  0.98  0.00  0.00  0.00  0.00  0.00
  WS02004411WS02004412    1.00   0.07  0.00  0.00  0.93  0.00  0.00  0.00  0.00  0.00
  WS02004401WS02004402    1.00   0.03  0.00  0.00  0.97  0.00  0.00  0.00  0.00  0.00
  WS02004413WS02003067    1.00   0.07  0.02  0.00  0.00  0.00  0.91  0.00  0.00  0.00
  WS02004412WS02004413    1.00   0.07  0.00  0.00  0.93  0.00  0.00  0.00  0.03  0.00
  WS02004410WS02004411    1.00   0.07  0.00  0.00  0.93  0.00  0.00  0.00  0.01  0.00
  WS02004409WS02004410    1.00   0.07  0.00  0.00  0.93  0.00  0.00  0.00  0.00  0.00
  WS02004407WS02004409    1.00   0.07  0.00  0.00  0.93  0.00  0.00  0.00  0.80  0.00
  WS02004406WS02004407    1.00   0.00  0.07  0.00  0.93  0.00  0.00  0.00  0.00  0.00
  WS02004405WS02004406    1.00   0.00  0.00  0.00  1.00  0.00  0.00  0.00  0.02  0.00
  WS02004404WS02004405    1.00   0.00  0.00  0.00  1.00  0.00  0.00  0.00  0.00  0.00
  WS02004403WS02004404    1.00   0.00  0.03  0.00  0.97  0.00  0.00  0.00  0.02  0.00
  WS02004402WS02004403    1.00   0.03  0.00  0.00  0.97  0.00  0.00  0.00  0.00  0.00
  WS02004139WS02001211    1.00   0.00  0.00  0.00  0.99  0.00  0.01  0.00  0.00  0.00
  WS02004138WS02004139    1.00   0.00  0.00  0.00  0.98  0.01  0.00  0.00  1.00  0.00
  WS02003067WS02003066    1.00   0.09  0.01  0.00  0.90  0.00  0.00  0.00  0.00  0.00
  WS02001213WS02003059    1.00   0.01  0.01  0.00  0.99  0.00  0.00  0.00  0.00  0.00
  WS02001212WS02001213    1.00   0.01  0.00  0.00  0.50  0.00  0.49  0.00  0.00  0.00
  WS02001211WS02001212    1.00   0.00  0.01  0.00  0.99  0.00  0.00  0.00  0.00  0.00
  WS02003072WS02003073    1.00   0.00  0.00  0.00  0.00  0.00  0.00  1.00  0.00  0.00
  WS02003069WS02003072    1.00   0.00  0.00  0.00  0.99  0.01  0.00  0.00  0.65  0.00
  WS02003060WS02003069    1.00   0.00  0.00  0.00  0.97  0.03  0.00  0.00  0.06  0.00
  WS02003059WS02003060    1.00   0.00  0.00  0.00  0.99  0.01  0.00  0.00  0.01  0.00
  HS02004901HS02004770    1.00   0.05  0.00  0.00  0.94  0.00  0.00  0.00  0.02  0.00
  HS02004876HS02004881    1.00   0.03  0.00  0.00  0.97  0.00  0.00  0.00  0.00  0.00
  HS02004870HS02004876    1.00   0.01  0.00  0.00  0.99  0.00  0.00  0.00  0.95  0.00
  HS02004842HS02004848    1.00   0.00  0.06  0.00  0.94  0.00  0.00  0.00  0.69  0.00
  HS02004837HS02004842    1.00   0.00  0.00  0.00  0.99  0.01  0.00  0.00  0.11  0.00
  HS02004830HS02004837    1.00   0.00  0.00  0.00  1.00  0.00  0.00  0.00  0.99  0.00
  HS02004824HS02004830    1.00   0.00  0.00  0.00  1.00  0.00  0.00  0.00  0.00  0.00
  HS02004817HS02004824    1.00   0.00  0.00  0.00  1.00  0.00  0.00  0.00  1.00  0.00
  HS02004770HS02004777    1.00   0.00  0.05  0.00  0.94  0.00  0.00  0.00  0.07  0.00
  HS02004799HS02004480    1.00   0.01  0.02  0.00  0.93  0.00  0.04  0.00  0.00  0.00
  HS02004792HS02004799    1.00   0.00  0.00  0.00  0.98  0.02  0.00  0.00  0.98  0.00
  HS02004788HS02004792    1.00   0.00  0.00  0.00  0.98  0.02  0.00  0.00  0.98  0.00
  HS02004785HS02004788    1.00   0.00  0.00  0.00  1.00  0.00  0.00  0.00  0.00  0.00
  HS02004777HS02004785    1.00   0.00  0.00  0.00  1.00  0.00  0.00  0.00  0.21  0.00
  HS02004480HS02004478    1.00   0.06  0.00  0.00  0.66  0.00  0.00  0.28  0.00  0.00
  HS02004479HS02004480    1.00   0.03  0.00  0.00  0.97  0.00  0.00  0.00  0.16  0.00
  HS02004862HS02004870    1.00   0.00  0.00  0.00  1.00  0.00  0.00  0.00  0.06  0.00
  HS02004848HS02004852    1.00   0.06  0.00  0.00  0.94  0.00  0.00  0.00  0.70  0.00
  HS02004856HS02004862    1.00   0.00  0.09  0.00  0.91  0.00  0.00  0.00  0.74  0.00
  HS02004852HS02004856    1.00   0.05  0.01  0.00  0.94  0.00  0.00  0.00  0.83  0.00
  HS02004802HS02004478    1.00   0.06  0.01  0.00  0.94  0.00  0.00  0.00  0.01  0.00
  HS02004478WS02006287    1.00   0.07  0.00  0.00  0.87  0.06  0.00  0.00  0.81  0.00
  HS02004817HS02004807    1.00   0.00  0.06  0.00  0.94  0.00  0.00  0.00  0.00  0.00
  HS02004807HS02004802    1.00   0.06  0.00  0.00  0.94  0.00  0.00  0.00  0.01  0.00
  YS02001759YS02001757    1.00   0.00  0.00  0.00  1.00  0.00  0.00  0.00  0.17  0.00
  YS02001762YS02001759    1.00   0.00  0.00  0.00  1.00  0.00  0.00  0.00  0.04  0.00
  YS02001765YS02001762    1.00   0.00  0.00  0.00  1.00  0.00  0.00  0.00  0.22  0.00
  YS02001770YS02001767    1.00   0.00  0.00  0.00  1.00  0.00  0.00  0.00  0.00  0.00
  YS02001774YS02001770    1.00   0.00  0.06  0.00  0.93  0.00  0.00  0.00  0.07  0.00
  YS02001779YS02001774    1.00   0.00  0.00  0.00  1.00  0.00  0.00  0.00  0.27  0.00
  YS02001649YS02001757    1.00   0.00  0.00  0.00  1.00  0.00  0.00  0.00  0.19  0.00
  YS02001767YS02001765    1.00   0.00  0.00  0.00  1.00  0.00  0.00  0.00  0.01  0.00
  YS02006561YS02001783    1.00   0.09  0.00  0.00  0.00  0.91  0.00  0.00  0.73  0.00
  YS02001783YS02001784    1.00   0.00  0.09  0.00  0.91  0.00  0.00  0.00  0.00  0.00
  YS02001784YS02001785    1.00   0.00  0.00  0.00  1.00  0.00  0.00  0.00  0.25  0.00
  YS02001788YS02001790    1.00   0.00  0.00  0.00  0.09  0.91  0.00  0.00  0.81  0.00
  YS02001790YS02001791    1.00   0.00  0.00  0.00  0.02  0.98  0.00  0.00  0.49  0.00
  YS02001791YS02001793    1.00   0.00  0.00  0.00  0.03  0.97  0.00  0.00  0.03  0.00
  YS02001910YS02001907    1.00   0.00  0.00  0.00  0.97  0.00  0.00  0.03  0.13  0.00
  YS02001786YS02001788    1.00   0.00  0.00  0.00  0.10  0.90  0.00  0.00  0.00  0.00
  YS02001915YS02001910    1.00   0.00  0.00  0.00  1.00  0.00  0.00  0.00  0.24  0.00
  YS02001918YS02001915    1.00   0.00  0.01  0.00  0.98  0.01  0.00  0.00  0.82  0.00
  YS02001923YS02001920    1.00   0.00  0.00  0.00  1.00  0.00  0.00  0.00  1.00  0.00
  YS02001926YS02001923    1.00   0.00  0.04  0.00  0.00  0.00  0.96  0.00  0.00  0.00
  YS02001929YS02001926    1.00   0.00  0.05  0.00  0.95  0.00  0.00  0.00  0.87  0.00
  YS02001920YS02001918    1.00   0.00  0.01  0.00  0.99  0.00  0.00  0.00  0.00  0.00
  YS02001629YS02163301    1.00   0.08  0.01  0.00  0.92  0.00  0.00  0.00  0.00  0.00
  YS02001619YS02001622    1.00   0.05  0.00  0.00  0.95  0.00  0.00  0.00  0.00  0.00
  YS02001622YS02001625    1.00   0.06  0.00  0.00  0.94  0.00  0.00  0.00  0.13  0.00
  YS02001625YS02001629    1.00   0.06  0.04  0.00  0.88  0.00  0.02  0.00  0.00  0.00
  YS02163301YS02001633    1.00   0.00  0.08  0.00  0.92  0.00  0.00  0.00  0.00  0.00
  YS02163601YS02164001    1.00   0.00  0.04  0.00  0.96  0.00  0.00  0.00  0.00  0.00
  YS02164001YS02001641    1.00   0.02  0.02  0.00  0.96  0.00  0.00  0.00  0.07  0.00
  YS02001641YS02001644    1.00   0.00  0.01  0.00  0.99  0.00  0.00  0.00  0.00  0.00
  YS02001647YS02001649    1.00   0.00  0.09  0.00  0.91  0.00  0.00  0.00  0.01  0.00
  YS02006553YS02006556    1.00   0.02  0.00  0.00  0.98  0.00  0.00  0.00  0.03  0.00
  YS02006556YS02006558    1.00   0.00  0.01  0.00  0.99  0.00  0.00  0.00  0.00  0.00
  YSB6556YSB1171          1.00   0.03  0.02  0.00  0.95  0.00  0.00  0.00  0.00  0.00
  YS02001907YS02006553    1.00   0.01  0.02  0.00  0.97  0.00  0.00  0.00  0.00  0.00
  YS02006558YS02006561    1.00   0.09  0.00  0.00  0.00  0.91  0.00  0.00  0.72  0.00
  YS02001633YS02163601    1.00   0.00  0.02  0.00  0.98  0.00  0.00  0.00  0.20  0.00
  YS02001644YS02001647    1.00   0.00  0.09  0.00  0.91  0.00  0.00  0.00  0.00  0.00
  YS02001745YS02001748    1.00   0.00  0.00  0.00  0.70  0.10  0.00  0.20  0.32  0.00
  YS02001748YS02001751    1.00   0.00  0.00  0.00  0.96  0.04  0.00  0.00  0.25  0.00
  YS02001751YS02001754    1.00   0.00  0.00  0.00  0.90  0.00  0.00  0.10  0.02  0.00
  YS02001754YS02001757    1.00   0.00  0.00  0.00  0.99  0.01  0.00  0.00  0.26  0.00
  YS02001882YS02001884    1.00   0.07  0.01  0.00  0.92  0.00  0.00  0.00  0.00  0.00
  YS02001884YS02001887    1.00   0.04  0.01  0.00  0.95  0.00  0.00  0.00  0.00  0.00
  YS02001890YS02001895    1.00   0.01  0.08  0.00  0.92  0.00  0.00  0.00  0.00  0.00
  YS02001895YS02001898    1.00   0.08  0.00  0.00  0.91  0.00  0.01  0.00  0.00  0.00
  YS02001898YS02001901    1.00   0.08  0.01  0.00  0.92  0.00  0.00  0.00  0.02  0.00
  YS02001901YS02001904    1.00   0.08  0.00  0.00  0.92  0.00  0.00  0.00  0.00  0.00
  YS02001904YS02001907    1.00   0.01  0.07  0.00  0.92  0.00  0.00  0.00  0.00  0.00
  YS02001887YS02001890    1.00   0.00  0.01  0.00  0.97  0.00  0.02  0.00  0.00  0.00
  YS02001652YS02001649    1.00   0.00  0.00  0.00  1.00  0.00  0.00  0.00  0.26  0.00
  YS02001655YS02001652    1.00   0.00  0.00  0.00  0.90  0.00  0.00  0.10  0.02  0.00
  YS02001658YS02001655    1.00   0.00  0.07  0.00  0.89  0.04  0.00  0.00  0.15  0.00
  YS02001661YS02001658    1.00   0.07  0.00  0.00  0.73  0.20  0.00  0.00  0.38  0.00
  YS02001664YS02001661    1.00   0.05  0.00  0.00  0.77  0.18  0.00  0.00  0.86  0.00
  YSB1154YSB6556          1.00   0.05  0.00  0.00  0.95  0.00  0.00  0.00  0.02  0.00
  YSB1174YSB1171          1.00   0.03  0.01  0.00  0.96  0.00  0.00  0.00  0.00  0.00
  YSB1171HS02004479       1.00   0.03  0.00  0.00  0.97  0.00  0.00  0.00  0.13  0.00
  HS02004881HS02006253    1.00   0.04  0.00  0.00  0.40  0.01  0.00  0.56  0.23  0.00
  YS02001793JiankangQianchi    1.00   0.00  0.00  0.00  0.29  0.70  0.00  0.00  0.12  0.00
  YS02001757CaochengTiaoxuchi    1.00   0.00  0.11  0.00  0.89  0.00  0.00  0.00  0.00  0.00
  WSF200WS02003060        1.00   0.00  0.10  0.00  0.64  0.26  0.00  0.00  0.44  0.00
  1                       1.00   0.00  0.00  0.00  0.00  1.00  0.00  0.00  0.22  0.00
  2                       1.00   1.00  0.00  0.00  0.00  0.00  0.00  0.00  0.00  0.00
  3                       1.00   0.19  0.00  0.00  0.00  0.81  0.00  0.00  0.04  0.00
  4                       1.00   1.00  0.00  0.00  0.00  0.00  0.00  0.00  0.00  0.00
  
  
  *************************
  Conduit Surcharge Summary
  *************************
  
  ----------------------------------------------------------------------------
                                                           Hours        Hours 
                         --------- Hours Full --------   Above Full   Capacity
  Conduit                Both Ends  Upstream  Dnstream   Normal Flow   Limited
  ----------------------------------------------------------------------------
  WS02006229WS02006228        0.36      0.47      0.36      1.87         0.36
  WS02006256WS02006235        5.61      5.61      7.83      5.38         0.01
  WS02006249WS02006248        0.01      0.01      0.01      1.62         0.01
  WS02006247WS02006245        0.01      0.01      0.01      1.80         0.01
  WS02006235WS02006234        0.01      0.01      0.01      5.64         0.01
  WS02006231WS02006230        0.01      0.01      0.01      5.60         0.01
  WS02006230WS02006229        1.12      1.63      1.12      5.67         1.12
  WS02006228WS02006109        0.42      0.74      0.42      2.20         0.42
  WS02006111WS02006112        0.01      0.01      1.88      0.01         0.01
  WS02006110WS02006113        0.01      0.01      0.58      0.01         0.01
  WS02006109WS02006110        0.01      0.01      0.74      0.01         0.01
  WS02004404WS02004405        0.01      0.01      0.01      5.57         0.01
  WS02003072WS02003073        0.01      0.01      0.01      1.92         0.01
  YS02001759YS02001757        3.99      3.99      5.15      0.01         0.01
  YS02001762YS02001759        3.83      3.83      3.99      0.01         0.01
  YS02001765YS02001762        3.36      3.36      3.83      0.01         0.01
  YS02001770YS02001767        3.01      3.03      3.06      0.01         0.31
  YS02001774YS02001770        2.89      2.89      3.68      0.01         0.01
  YS02001779YS02001774        1.98      1.98      3.68      0.01         0.01
  YS02001649YS02001757        3.87      3.87      5.15      0.01         0.01
  YS02001767YS02001765        3.06      3.06      3.36      0.01         0.02
  YS02001791YS02001793        0.01      0.01      0.02      0.01         0.01
  YS02001629YS02163301        2.79      2.79      2.92      0.01         0.01
  YS02001619YS02001622        0.29      0.29      0.51      0.01         0.01
  YS02001622YS02001625        0.51      0.51      2.50      0.01         0.01
  YS02001625YS02001629        0.29      0.29      2.50      0.01         0.01
  YS02163301YS02001633        2.92      2.92      3.35      0.01         0.01
  YS02163601YS02164001        3.26      3.26      3.84      0.01         0.01
  YS02164001YS02001641        3.26      3.26      3.49      0.01         0.01
  YS02001641YS02001644        3.46      3.49      3.56      0.01         0.29
  YS02001647YS02001649        2.46      2.46      3.87      0.01         0.01
  YS02001633YS02163601        3.11      3.11      3.84      0.01         0.01
  YS02001644YS02001647        2.46      2.46      3.56      0.01         0.01
  YS02001748YS02001751        0.01      0.01      0.72      0.01         0.01
  YS02001751YS02001754        0.72      0.72      2.19      0.01         0.01
  YS02001754YS02001757        2.48      2.48      5.15      0.01         0.01
  YS02001652YS02001649        2.54      2.54      3.87      0.01         0.01
  YS02001655YS02001652        0.97      0.97      2.36      0.01         0.01
  YS02001658YS02001655        0.01      0.01      0.97      0.01         0.01
  YS02001793JiankangQianchi        0.01      0.01      1.13      0.01         0.01
  YS02001757CaochengTiaoxuchi        0.01      0.01      5.15      0.01         0.01
  3                           0.01      0.01      0.01      0.01         0.01
  
  
  ***************
  Pumping Summary
  ***************
  
  ---------------------------------------------------------------------------------------------------------
                                                  Min       Avg       Max     Total     Power    % Time Off
                        Percent   Number of      Flow      Flow      Flow    Volume     Usage    Pump Curve
  Pump                 Utilized   Start-Ups       LPS       LPS       LPS  10^6 ltr     Kw-hr    Low   High
  ---------------------------------------------------------------------------------------------------------
  CC-Pump-1               27.51           2      0.00    173.20    200.00     1.334      4.98    0.0   66.9
  CC-Pump-2                0.00           0      0.00      0.00      0.00     0.000      0.00    0.0    0.0
  JK-Pump-1               89.36           3      0.00    119.73    300.00     1.921     32.76    0.0    0.0
  JK-Pump-2               89.36           3      0.00    133.18    300.00     2.092     36.07    0.0    0.0
  XR-Pump-1               14.88           2      0.00     68.78     95.00     0.285      3.97    0.0    0.0
  XR-Pump-2               44.69           3      0.00     77.70     95.00     1.055     16.67    0.0    0.0
  XR-Pump-3               87.23           4      0.00     84.82     95.00     2.166     22.34    0.0    0.0
  XR-Pump-4               91.49           4      0.00     85.69     95.00     2.280     24.31    0.0    0.0
  

  Analysis begun on:  Tue Dec 21 17:25:56 2021
  Analysis ended on:  Tue Dec 21 17:25:59 2021
  Total elapsed time: 00:00:03