
  EPA STORM WATER MANAGEMENT MODEL - VERSION 5.1 (Build 5.3.0.dev0)
  --------------------------------------------------------------

  WARNING 04: minimum elevation drop used for Conduit WS02004404WS02004405
  WARNING 03: negative offset ignored for Link YS02001904YS02001907
  
  *********************************************************
  NOTE: The summary statistics displayed in this report are
  based on results found at every computational time step,  
  not just on results from each reporting time step.
  *********************************************************
  
  ****************
  Analysis Options
  ****************
  Flow Units ............... LPS
  Process Models:
    Rainfall/Runoff ........ YES
    RDII ................... NO
    Snowmelt ............... NO
    Groundwater ............ NO
    Flow Routing ........... YES
    Ponding Allowed ........ NO
    Water Quality .......... NO
  Infiltration Method ...... HORTON
  Flow Routing Method ...... DYNWAVE
  Surcharge Method ......... EXTRAN
  Starting Date ............ 08/28/2015 08:00:00
  Ending Date .............. 08/28/2015 15:50:00
  Antecedent Dry Days ...... 8.0
  Report Time Step ......... 00:01:00
  Wet Time Step ............ 00:01:00
  Dry Time Step ............ 00:01:00
  Routing Time Step ........ 5.00 sec
  Variable Time Step ....... YES
  Maximum Trials ........... 8
  Number of Threads ........ 4
  Head Tolerance ........... 0.001500 m
  
  
  **************************        Volume         Depth
  Runoff Quantity Continuity     hectare-m            mm
  **************************     ---------       -------
  Total Precipitation ......         3.679         8.055
  Evaporation Loss .........         0.000         0.000
  Infiltration Loss ........         0.936         2.049
  Surface Runoff ...........         1.790         3.918
  Final Storage ............         0.955         2.090
  Continuity Error (%) .....        -0.018
  
  
  **************************        Volume        Volume
  Flow Routing Continuity        hectare-m      10^6 ltr
  **************************     ---------     ---------
  Dry Weather Inflow .......         0.616         6.165
  Wet Weather Inflow .......         1.789        17.887
  Groundwater Inflow .......         0.000         0.000
  RDII Inflow ..............         0.000         0.000
  External Inflow ..........         0.102         1.024
  External Outflow .........         1.639        16.389
  Flooding Loss ............         0.400         4.001
  Evaporation Loss .........         0.000         0.000
  Exfiltration Loss ........         0.000         0.000
  Initial Stored Volume ....         0.076         0.761
  Final Stored Volume ......         0.634         6.343
  Continuity Error (%) .....        -3.472
  
  
  *************************
  Highest Continuity Errors
  *************************
  Node YS02001774 (33.51%)
  Node HS02004842 (22.75%)
  Node JK-storage (-16.98%)
  Node YS02001884 (13.78%)
  Node YSB1171 (4.89%)
  
  
  ***************************
  Time-Step Critical Elements
  ***************************
  Link WS02006252WS02006251 (49.60%)
  Link 3 (42.21%)
  Link WS02006280WS02006229 (1.85%)
  Link WS02006238WS02006235 (1.82%)
  
  
  ********************************
  Highest Flow Instability Indexes
  ********************************
  Link WS02006113WS02006111 (45)
  Link YS02001774YS02001770 (28)
  Link YS02001779YS02001774 (28)
  Link YS02001765YS02001762 (23)
  Link YS02001762YS02001759 (23)
  
  
  *************************
  Routing Time Step Summary
  *************************
  Minimum Time Step           :     0.50 sec
  Average Time Step           :     0.97 sec
  Maximum Time Step           :     5.00 sec
  Percent in Steady State     :    -0.00
  Average Iterations per Step :     4.22
  Percent Not Converging      :    20.01
  
  
  ***************************
  Subcatchment Runoff Summary
  ***************************
  
  ------------------------------------------------------------------------------------------------------------------------------
                            Total      Total      Total      Total     Imperv       Perv      Total       Total     Peak  Runoff
                           Precip      Runon       Evap      Infil     Runoff     Runoff     Runoff      Runoff   Runoff   Coeff
  Subcatchment                 mm         mm         mm         mm         mm         mm         mm    10^6 ltr      LPS
  ------------------------------------------------------------------------------------------------------------------------------
  sub0                       8.06       0.00       0.00       0.56       6.23       0.00       6.23        0.01     2.15   0.773
  sub1                       8.06       0.00       0.00       0.89       5.91       0.00       5.91        0.04    11.80   0.734
  sub2                       8.06       0.00       0.00       2.98       4.17       0.00       4.17        0.04    10.54   0.517
  sub3                       8.06       0.00       0.00       2.98       4.13       0.00       4.13        0.09    21.95   0.513
  sub4                       8.06       0.00       0.00       0.89       5.77       0.00       5.77        0.12    24.90   0.716
  sub5                       8.06       0.00       0.00       0.56       6.18       0.00       6.18        0.07    20.99   0.767
  sub7                       8.06       0.00       0.00       0.72       6.08       0.00       6.08        0.02     7.27   0.754
  sub8                       8.06       0.00       0.00       0.72       6.07       0.00       6.07        0.04    12.92   0.753
  sub9                       8.06       0.00       0.00       0.72       6.06       0.00       6.06        0.03     9.59   0.753
  sub10                      8.06       0.00       0.00       0.64       6.12       0.00       6.12        0.07    20.88   0.760
  sub11                      8.06       0.00       0.00       0.64       6.14       0.00       6.14        0.07    24.25   0.762
  sub12                      8.06       0.00       0.00       1.05       5.82       0.00       5.82        0.05    20.11   0.722
  sub14                      8.06       0.00       0.00       0.72       6.06       0.00       6.06        0.06    18.77   0.753
  sub15                      8.06       0.00       0.00       2.42       4.66       0.00       4.66        0.08    25.52   0.578
  sub16                      8.06       0.00       0.00       2.66       4.48       0.00       4.48        0.05    17.80   0.556
  sub17                      8.06       0.00       0.00       2.58       4.54       0.00       4.54        0.04    14.42   0.564
  sub22                      8.06       0.00       0.00       3.46       3.80       0.00       3.80        0.24    82.82   0.472
  sub23                      8.06       0.00       0.00       2.98       4.20       0.00       4.20        0.20    70.38   0.522
  sub60                      8.06       0.00       0.00       0.97       4.43       0.00       4.43        1.34   135.38   0.550
  sub61                      8.06       0.00       0.00       1.37       4.63       0.00       4.63        1.43   167.06   0.575
  sub62                      8.06       0.00       0.00       0.64       5.00       0.00       5.00        1.54   171.55   0.620
  sub63                      8.06       0.00       0.00       2.34       4.09       0.00       4.09        1.24   154.92   0.508
  sub64                      8.06       0.00       0.00       1.21       4.24       0.00       4.24        1.29   128.75   0.527
  sub65                      8.06       0.00       0.00       1.05       4.30       0.00       4.30        1.32   130.82   0.534
  sub66                      8.06       0.00       0.00       2.34       3.67       0.00       3.67        1.13   117.38   0.456
  sub67                      8.06       0.00       0.00       0.64       5.39       0.00       5.39        1.66   216.94   0.669
  sub68                      8.06       0.00       0.00       1.13       4.90       0.00       4.90        1.51   183.95   0.608
  sub69                      8.06       0.00       0.00       1.21       5.19       0.00       5.19        1.21   179.57   0.644
  sub70                      8.06       5.30       0.00       4.54       6.64       0.00       6.64        1.52   155.14   0.497
  sub71                      8.06       0.00       0.00       0.64       4.82       0.00       4.82        1.14   120.44   0.598
  sub72                      8.06       0.00       0.00       0.56       3.59       0.00       3.59        0.73    59.05   0.445
  sub73                      8.06       6.46       0.00       4.94       6.98       0.00       6.98        1.64   136.02   0.481
  sub74                      8.06       0.00       0.00       6.04       1.56       0.00       1.56        0.62    99.54   0.193
  
  
  ******************
  Node Depth Summary
  ******************
  
  ---------------------------------------------------------------------------------
                                 Average  Maximum  Maximum  Time of Max    Reported
                                   Depth    Depth      HGL   Occurrence   Max Depth
  Node                 Type       Meters   Meters   Meters  days hr:min      Meters
  ---------------------------------------------------------------------------------
  WS02001211           JUNCTION     0.64     0.72     5.56     0  02:30        0.72
  WS02001212           JUNCTION     0.37     0.45     5.52     0  02:31        0.45
  WS02001213           JUNCTION     0.60     0.72     5.48     0  02:31        0.72
  WS02003069           JUNCTION     0.42     0.57     5.15     0  02:32        0.57
  WS02003072           JUNCTION     0.48     0.63     5.00     0  02:32        0.63
  WS02003073           JUNCTION     0.29     0.38     4.45     0  02:33        0.38
  WS02003060           JUNCTION     0.37     0.50     5.43     0  02:31        0.50
  WS02003066           JUNCTION     0.22     0.31     5.87     0  02:29        0.31
  WS02003059           JUNCTION     0.66     0.78     5.46     0  02:31        0.78
  WS02003067           JUNCTION     0.55     0.72     6.04     0  02:29        0.72
  WS02004401           JUNCTION     0.65     0.90     6.90     0  02:26        0.90
  WS02004402           JUNCTION     0.68     0.93     6.89     0  02:25        0.93
  WS02004403           JUNCTION     0.70     0.94     6.87     0  02:25        0.94
  WS02004404           JUNCTION     0.78     1.01     6.86     0  02:25        1.01
  WS02004406           JUNCTION     0.78     0.99     6.82     0  02:25        0.99
  WS02004409           JUNCTION     0.47     0.71     6.48     0  02:28        0.71
  WS02004410           JUNCTION     0.49     0.72     6.44     0  02:28        0.72
  WS02004411           JUNCTION     0.50     0.73     6.41     0  02:28        0.73
  WS02004412           JUNCTION     0.52     0.73     6.37     0  02:28        0.73
  WS02004413           JUNCTION     0.67     0.89     6.36     0  02:29        0.89
  WS02004405           JUNCTION     0.77     1.00     6.85     0  02:25        1.00
  WS02006109           JUNCTION     0.73     1.04     7.65     0  02:23        1.03
  WS02006110           JUNCTION     0.72     0.96     7.55     0  02:22        0.96
  WS02006111           JUNCTION     0.21     0.30     7.01     0  02:24        0.30
  WS02006112           JUNCTION     0.82     1.19     7.08     0  02:25        1.13
  WS02006113           JUNCTION     0.32     0.48     7.37     0  02:23        0.48
  WS02006115           JUNCTION     0.54     0.81     6.95     0  02:26        0.81
  WS02006116           JUNCTION     0.62     0.89     6.93     0  02:26        0.89
  WS02006230           JUNCTION     0.68     1.08     7.83     0  02:22        1.08
  WS02006231           JUNCTION     0.45     0.74     7.87     0  02:22        0.74
  WS02006232           JUNCTION     0.58     0.86     7.90     0  02:23        0.86
  WS02006234           JUNCTION     0.49     0.79     7.94     0  02:23        0.78
  WS02006235           JUNCTION     0.52     0.81     7.97     0  02:23        0.80
  WS02006238           JUNCTION     0.55     0.83     7.97     0  02:23        0.83
  WS02006240           JUNCTION     0.43     0.73     8.02     0  02:24        0.73
  WS02006242           JUNCTION     0.47     0.78     8.05     0  02:24        0.78
  WS02006243           JUNCTION     0.34     0.66     8.08     0  02:25        0.66
  WS02006245           JUNCTION     0.31     0.61     8.10     0  02:25        0.61
  WS02006247           JUNCTION     0.32     0.61     8.11     0  02:25        0.61
  WS02006248           JUNCTION     0.27     0.54     8.13     0  02:25        0.54
  WS02006249           JUNCTION     0.30     0.55     8.15     0  02:25        0.55
  WS02006239           JUNCTION     0.49     0.79     8.00     0  02:23        0.79
  WS02006251           JUNCTION     0.29     0.52     8.19     0  02:25        0.52
  WS02006252           JUNCTION     0.25     0.35     8.59     0  02:13        0.35
  WS02006253           JUNCTION     0.31     0.55     8.19     0  02:25        0.55
  WS02006256           JUNCTION     1.05     2.35     9.28     0  00:00        1.19
  WS02004138           JUNCTION     0.15     0.17     7.42     0  00:00        0.17
  WS02004407           JUNCTION     0.21     0.31     6.63     0  02:26        0.31
  WS02006228           JUNCTION     0.72     1.09     7.74     0  02:22        1.09
  WS02006229           JUNCTION     0.70     1.09     7.78     0  02:22        1.09
  WS02006280           JUNCTION     0.06     0.18     8.45     0  02:15        0.18
  WS02006284           JUNCTION     0.36     0.53     8.93     0  02:14        0.53
  WS02006287           JUNCTION     0.09     0.27     9.22     0  02:14        0.27
  WSF200               JUNCTION     0.21     0.33     5.57     0  02:29        0.33
  HS02004901           JUNCTION     0.12     0.27    10.10     0  02:12        0.27
  HS02004881           JUNCTION     0.01     0.03     9.06     0  02:15        0.03
  HS02004876           JUNCTION     0.04     0.11     9.14     0  02:08        0.11
  HS02004870           JUNCTION     0.01     0.06     9.34     0  02:15        0.06
  HS02004862           JUNCTION     0.02     0.06     9.45     0  02:16        0.06
  HS02004856           JUNCTION     0.08     0.12     9.54     0  02:15        0.12
  HS02004852           JUNCTION     0.01     0.04     9.55     0  02:16        0.04
  HS02004848           JUNCTION     0.01     0.04     9.64     0  02:15        0.04
  HS02004842           JUNCTION     0.33     0.37     9.64     0  02:15        0.37
  HS02004837           JUNCTION     0.03     0.06     9.64     0  02:15        0.06
  HS02004830           JUNCTION     0.04     0.07     9.54     0  02:15        0.07
  HS02004824           JUNCTION     0.02     0.05     9.45     0  02:18        0.05
  HS02004817           JUNCTION     0.43     0.57     9.42     0  02:15        0.57
  HS02004807           JUNCTION     0.12     0.25     9.42     0  02:15        0.25
  HS02004802           JUNCTION     0.16     0.28     9.41     0  02:15        0.28
  HS02004799           JUNCTION     0.11     0.32     9.53     0  02:13        0.32
  HS02004792           JUNCTION     0.03     0.13     9.65     0  02:12        0.13
  HS02004788           JUNCTION     0.02     0.10    10.00     0  02:13        0.10
  HS02004785           JUNCTION     0.04     0.17    10.07     0  02:12        0.17
  HS02004777           JUNCTION     0.14     0.29    10.09     0  02:12        0.29
  HS02004770           JUNCTION     0.11     0.26    10.10     0  02:12        0.26
  HS02004480           JUNCTION     0.08     0.25     9.49     0  02:13        0.25
  HS02004479           JUNCTION     0.11     0.29     9.49     0  02:13        0.29
  HS02004478           JUNCTION     0.06     0.17     9.40     0  02:14        0.17
  YS02001745           JUNCTION     0.61     0.85     8.37     0  04:16        0.85
  YS02001748           JUNCTION     1.00     1.30     8.38     0  04:16        1.29
  YS02001751           JUNCTION     1.18     1.92     8.80     0  02:49        1.49
  YS02001754           JUNCTION     1.43     1.90     8.51     0  02:49        1.76
  YS02001762           JUNCTION     1.63     2.02     8.42     0  04:04        1.98
  YS02001765           JUNCTION     1.58     1.96     8.41     0  04:05        1.93
  YS02001767           JUNCTION     1.54     1.91     8.40     0  04:04        1.89
  YS02001770           JUNCTION     1.54     1.92     8.41     0  02:54        1.88
  YS02001774           JUNCTION     1.61     1.99     8.42     0  02:54        1.95
  YS02001779           JUNCTION     1.36     1.68     8.37     0  02:54        1.68
  YS02001882           JUNCTION     0.36     0.62     7.34     0  02:51        0.62
  YS02001884           JUNCTION     0.45     0.72     7.33     0  02:48        0.71
  YS02001759           JUNCTION     1.66     2.05     8.41     0  04:05        2.01
  YS02001887           JUNCTION     0.53     0.80     7.34     0  02:51        0.79
  YS02001890           JUNCTION     0.56     0.82     7.33     0  02:48        0.82
  YS02001898           JUNCTION     0.33     0.58     7.32     0  02:49        0.58
  YS02001901           JUNCTION     0.45     0.71     7.32     0  02:52        0.70
  YS02001904           JUNCTION     0.43     0.69     7.32     0  02:47        0.68
  YS02001907           JUNCTION     0.76     1.05     7.34     0  02:51        1.03
  YS02001910           JUNCTION     0.55     0.81     7.32     0  02:50        0.81
  YS02001915           JUNCTION     0.35     0.59     7.31     0  02:49        0.59
  YS02001918           JUNCTION     0.12     0.24     7.31     0  02:52        0.24
  YS02001619           JUNCTION     1.14     1.61     8.54     0  03:23        1.45
  YS02001629           JUNCTION     1.49     1.85     8.40     0  03:26        1.84
  YS02001641           JUNCTION     1.60     1.94     8.38     0  03:59        1.92
  YS02001644           JUNCTION     1.60     1.92     8.35     0  03:51        1.92
  YS02001652           JUNCTION     1.44     2.12     8.72     0  02:56        1.79
  YS02001655           JUNCTION     1.21     2.20     9.05     0  02:52        1.56
  YS02001920           JUNCTION     0.21     0.32     7.32     0  02:51        0.31
  YS02001923           JUNCTION     0.08     0.11     7.37     0  03:01        0.11
  YS02001926           JUNCTION     0.17     0.22     7.67     0  03:01        0.22
  YS02001929           JUNCTION     0.08     0.11     7.81     0  03:01        0.11
  YS02001658           JUNCTION     0.94     2.07     9.22     0  03:18        1.29
  YS02001661           JUNCTION     0.72     1.40     8.80     0  04:04        1.05
  YS02001664           JUNCTION     0.31     0.56     8.49     0  04:03        0.54
  YS02001622           JUNCTION     1.17     1.61     8.51     0  03:22        1.48
  YS02001633           JUNCTION     1.58     1.94     8.40     0  03:59        1.92
  YS02001649           JUNCTION     1.63     2.05     8.44     0  04:03        1.99
  YS02001757           JUNCTION     1.76     2.15     8.42     0  04:05        2.11
  YS02001895           JUNCTION     0.33     0.58     7.32     0  02:52        0.57
  YS02001625           JUNCTION     1.45     1.78     8.38     0  03:24        1.77
  YS02163301           JUNCTION     1.52     1.89     8.41     0  03:33        1.85
  YS02163601           JUNCTION     1.64     1.99     8.39     0  03:58        1.97
  YS02164001           JUNCTION     1.58     1.92     8.38     0  03:59        1.91
  YS02001647           JUNCTION     1.43     1.80     8.41     0  04:05        1.75
  YSB1154              JUNCTION     0.25     0.44     9.50     0  02:13        0.44
  YSB6556              JUNCTION     0.15     0.33     9.50     0  02:13        0.33
  YSB1174              JUNCTION     0.20     0.39     9.50     0  02:13        0.39
  YSB1171              JUNCTION     0.40     0.59     9.50     0  02:13        0.59
  YS02006553           JUNCTION     0.76     1.05     7.34     0  02:59        1.04
  YS02006561           JUNCTION     0.18     0.40     7.06     0  02:42        0.38
  YS02006556           JUNCTION     0.73     1.00     7.32     0  02:53        0.99
  YS02006558           JUNCTION     0.77     1.05     7.32     0  02:48        1.04
  YS02001783           JUNCTION     0.37     1.20     7.34     0  02:42        0.93
  YS02001784           JUNCTION     0.41     1.33     7.40     0  02:42        0.94
  YS02001786           JUNCTION     0.38     1.56     7.59     0  02:42        0.89
  YS02001788           JUNCTION     0.34     1.50     7.47     0  02:42        0.87
  YS02001790           JUNCTION     0.47     1.96     7.60     0  02:40        1.12
  YS02001791           JUNCTION     0.48     2.67     8.14     0  02:40        1.20
  YS02001793           JUNCTION     0.69     2.46     7.29     0  02:38        1.79
  WS02004139           JUNCTION     0.59     0.66     5.57     0  02:30        0.66
  WSC                  OUTFALL      0.29     0.38     1.05     0  02:33        0.38
  3                    OUTFALL      0.09     0.23     6.23     0  00:00        0.19
  4                    OUTFALL      0.00     0.05     7.05     0  02:25        0.05
  5                    OUTFALL      0.00     0.00     5.00     0  00:00        0.00
  JK-storage           STORAGE      2.60     5.80     6.60     0  02:41        5.80
  CC-storage           STORAGE      0.99     1.37     8.37     0  05:54        1.37
  XR-storage           STORAGE      6.80     7.72     5.72     0  03:00        7.72
  
  
  *******************
  Node Inflow Summary
  *******************
  
  -------------------------------------------------------------------------------------------------
                                  Maximum  Maximum                  Lateral       Total        Flow
                                  Lateral    Total  Time of Max      Inflow      Inflow     Balance
                                   Inflow   Inflow   Occurrence      Volume      Volume       Error
  Node                 Type           LPS      LPS  days hr:min    10^6 ltr    10^6 ltr     Percent
  -------------------------------------------------------------------------------------------------
  WS02001211           JUNCTION      7.35   292.90     0  03:36       0.207        6.76       0.429
  WS02001212           JUNCTION      0.00   293.16     0  03:36           0        6.73       0.237
  WS02001213           JUNCTION      0.00   293.41     0  03:35           0        6.72       0.287
  WS02003069           JUNCTION      0.32   896.65     0  02:32     0.00902        13.5       0.153
  WS02003072           JUNCTION      0.00   896.49     0  02:32           0        13.5       0.204
  WS02003073           JUNCTION      1.82   898.24     0  02:33      0.0514        13.5       0.216
  WS02003060           JUNCTION     16.53   896.51     0  02:31       0.466        13.5       0.149
  WS02003066           JUNCTION      0.00   596.58     0  02:29           0        6.37       0.049
  WS02003059           JUNCTION      0.00   293.88     0  03:35           0         6.7       0.454
  WS02003067           JUNCTION      0.00   596.47     0  02:29           0        6.38       0.110
  WS02004401           JUNCTION      0.00   600.91     0  02:25           0        6.55       0.251
  WS02004402           JUNCTION      0.00   600.74     0  02:25           0        6.54       0.243
  WS02004403           JUNCTION      0.00   599.72     0  02:25           0        6.52       0.227
  WS02004404           JUNCTION      0.16   600.07     0  02:25     0.00457        6.51       0.176
  WS02004406           JUNCTION      0.00   599.96     0  02:25           0        6.48       0.432
  WS02004409           JUNCTION      0.00   599.59     0  02:26           0        6.45       0.158
  WS02004410           JUNCTION      0.00   598.12     0  02:27           0        6.44       0.189
  WS02004411           JUNCTION      0.00   597.30     0  02:28           0        6.43       0.201
  WS02004412           JUNCTION      0.00   596.80     0  02:28           0        6.42       0.230
  WS02004413           JUNCTION      0.00   596.63     0  02:28           0         6.4       0.358
  WS02004405           JUNCTION      0.04   600.24     0  02:25     0.00107         6.5       0.268
  WS02006109           JUNCTION      1.23   594.07     0  02:22      0.0347        6.61       0.284
  WS02006110           JUNCTION      0.00   594.04     0  02:22           0        6.59       0.232
  WS02006111           JUNCTION      0.00   622.17     0  02:23           0        6.57       0.042
  WS02006112           JUNCTION     14.42   611.18     0  02:24       0.039         6.6       0.345
  WS02006113           JUNCTION      0.00   594.39     0  02:22           0        6.57       0.094
  WS02006115           JUNCTION      0.00   617.95     0  02:24           0        6.58       0.213
  WS02006116           JUNCTION      0.00   602.94     0  02:24           0        6.57       0.214
  WS02006230           JUNCTION     10.28   337.48     0  03:09        0.29        5.37       0.236
  WS02006231           JUNCTION      0.00   326.12     0  03:08           0        5.08       0.070
  WS02006232           JUNCTION      0.00   325.98     0  03:00           0        5.09       0.245
  WS02006234           JUNCTION      0.00   325.43     0  03:00           0        5.09       0.072
  WS02006235           JUNCTION      0.00   325.12     0  02:59           0        5.13       0.162
  WS02006238           JUNCTION      0.00   284.35     0  02:40           0        2.79       0.170
  WS02006240           JUNCTION      0.00   273.66     0  02:40           0        2.77       0.180
  WS02006242           JUNCTION      0.00   269.23     0  02:41           0        2.77       0.205
  WS02006243           JUNCTION      0.00   261.66     0  02:41           0        2.76      -0.043
  WS02006245           JUNCTION      0.00   257.28     0  02:41           0        2.76       0.080
  WS02006247           JUNCTION      0.00   257.46     0  02:18           0        2.76       0.006
  WS02006248           JUNCTION      0.00   260.38     0  02:18           0        2.76      -0.019
  WS02006249           JUNCTION      0.00   263.04     0  02:17           0        2.78       0.041
  WS02006239           JUNCTION      0.00   279.90     0  02:40           0        2.78       0.219
  WS02006251           JUNCTION      0.08   265.10     0  02:17     0.00217        2.78       0.001
  WS02006252           JUNCTION      0.00   200.00     0  02:50           0        2.55       0.003
  WS02006253           JUNCTION      2.15    66.55     0  02:14     0.00504       0.223      -0.220
  WS02006256           JUNCTION      0.00   600.00     0  00:00           0        5.28       0.045
  WS02004138           JUNCTION      0.00   285.00     0  00:00           0        6.58       0.066
  WS02004407           JUNCTION      0.00   599.82     0  02:26           0        6.46       0.074
  WS02006228           JUNCTION      0.00   592.86     0  02:22           0        6.59       0.185
  WS02006229           JUNCTION      0.00   592.84     0  02:22           0         6.6       0.155
  WS02006280           JUNCTION      0.00   330.24     0  02:15           0        1.24       0.005
  WS02006284           JUNCTION      0.10   330.21     0  02:14      0.0027        1.25       0.092
  WS02006287           JUNCTION      0.00   330.07     0  02:14           0        1.24       0.058
  WSF200               JUNCTION      0.00   596.64     0  02:29           0        6.37       0.037
  HS02004901           JUNCTION     17.80    17.80     0  02:08      0.0469       0.047       3.884
  HS02004881           JUNCTION      7.27    64.87     0  02:15      0.0205       0.219       0.191
  HS02004876           JUNCTION     11.80    58.23     0  02:15      0.0393       0.199       0.270
  HS02004870           JUNCTION     12.92    46.63     0  02:14      0.0387       0.159       0.067
  HS02004862           JUNCTION     10.74    34.47     0  02:15      0.0445       0.121       0.141
  HS02004856           JUNCTION      9.59    23.80     0  02:14      0.0291      0.0779       1.885
  HS02004852           JUNCTION      0.00    14.76     0  02:15           0      0.0488       0.109
  HS02004848           JUNCTION     21.95    21.95     0  02:18      0.0929      0.0929       0.048
  HS02004842           JUNCTION      0.00     7.98     0  02:27           0      0.0572      29.449
  HS02004837           JUNCTION     27.23    33.75     0  02:14       0.247       0.291       0.280
  HS02004830           JUNCTION      0.15    33.88     0  02:15     0.00423       0.281       0.441
  HS02004824           JUNCTION     24.95    58.52     0  02:18       0.122       0.401       0.134
  HS02004817           JUNCTION      0.60    59.11     0  02:18      0.0169       0.418       4.155
  HS02004807           JUNCTION     24.25    81.36     0  02:16      0.0712       0.472       0.903
  HS02004802           JUNCTION      0.00    81.95     0  02:17           0       0.468       0.876
  HS02004799           JUNCTION     18.77   212.17     0  02:12      0.0577       0.674       0.342
  HS02004792           JUNCTION     83.10   193.65     0  02:12       0.248       0.617       0.065
  HS02004788           JUNCTION     27.19   112.52     0  02:12       0.127        0.37       0.104
  HS02004785           JUNCTION      0.15    85.60     0  02:12     0.00423       0.245       0.199
  HS02004777           JUNCTION      0.03    85.91     0  02:11    0.000846       0.245       2.162
  HS02004770           JUNCTION     70.38    87.06     0  02:10         0.2       0.246       1.276
  HS02004480           JUNCTION      0.00   250.50     0  02:13           0       0.792       0.098
  HS02004479           JUNCTION      0.00    39.06     0  02:14           0        0.13       0.565
  HS02004478           JUNCTION      0.00   330.05     0  02:14           0        1.24       0.048
  YS02001745           JUNCTION    135.38   237.05     0  03:23        1.34        1.35       0.858
  YS02001748           JUNCTION      0.04   345.28     0  02:48     0.00127        1.35       1.708
  YS02001751           JUNCTION      0.01   441.12     0  02:49     0.00031        1.32       1.739
  YS02001754           JUNCTION      0.26   208.77     0  02:51     0.00733        1.29       1.866
  YS02001762           JUNCTION      0.00   198.35     0  02:55           0        1.47       1.441
  YS02001765           JUNCTION      0.00   194.63     0  02:55           0        1.47       1.668
  YS02001767           JUNCTION      0.54   192.91     0  02:55      0.0151        1.48       2.463
  YS02001770           JUNCTION    171.71   197.86     0  02:30        1.54        1.56       2.006
  YS02001774           JUNCTION      0.00    58.60     0  02:12           0      0.0743      50.401
  YS02001779           JUNCTION      0.01    57.23     0  02:23    0.000141       0.034      78.619
  YS02001882           JUNCTION      0.00    12.09     0  02:50           0      0.0121      18.691
  YS02001884           JUNCTION      0.00    18.08     0  02:50           0      0.0389      15.988
  YS02001759           JUNCTION    167.10   366.66     0  02:55        1.43        2.86       0.804
  YS02001887           JUNCTION    217.39   227.76     0  02:38        1.68         1.7       0.455
  YS02001890           JUNCTION      0.00   225.44     0  02:46           0        1.66       0.507
  YS02001898           JUNCTION      0.00   230.96     0  02:49           0        1.65       0.161
  YS02001901           JUNCTION      0.00   231.91     0  02:42           0        1.65       0.368
  YS02001904           JUNCTION      0.00   231.37     0  02:43           0        1.65       0.341
  YS02001907           JUNCTION      0.00   443.25     0  02:52           0        3.57       0.640
  YS02001910           JUNCTION      0.00   202.00     0  02:58           0        1.94       0.560
  YS02001915           JUNCTION    120.46   192.50     0  03:02        1.14        1.94       0.266
  YS02001918           JUNCTION      0.00    67.11     0  03:03           0       0.807       0.180
  YS02001619           JUNCTION    117.38   117.38     0  02:55        1.13        1.13       1.057
  YS02001629           JUNCTION      0.00   219.29     0  02:51           0        1.05       2.725
  YS02001641           JUNCTION      0.00   267.80     0  02:58           0        2.28       0.923
  YS02001644           JUNCTION    128.79   396.46     0  02:57        1.29        4.35       0.595
  YS02001652           JUNCTION      0.00   216.64     0  02:56           0        1.18       2.025
  YS02001655           JUNCTION      0.15   389.49     0  02:56     0.00434        1.21       1.978
  YS02001920           JUNCTION      2.87    61.89     0  03:01      0.0809        0.81       0.299
  YS02001923           JUNCTION      0.04    59.02     0  03:01     0.00106       0.729       0.054
  YS02001926           JUNCTION      0.05    59.08     0  03:01     0.00147       0.731       0.372
  YS02001929           JUNCTION     59.05    59.05     0  03:01        0.73        0.73       0.053
  YS02001658           JUNCTION      0.00   512.14     0  03:18           0         1.3       1.515
  YS02001661           JUNCTION      0.00   442.44     0  04:00           0        1.91       0.568
  YS02001664           JUNCTION    154.92   383.96     0  03:59        1.24        1.84       0.350
  YS02001622           JUNCTION      0.00   165.33     0  02:51           0        1.11       2.889
  YS02001633           JUNCTION    131.02   271.42     0  02:27        1.33        2.34       1.369
  YS02001649           JUNCTION      0.00   598.21     0  02:49           0        3.88       0.958
  YS02001757           JUNCTION      0.00  1020.00     0  02:52           0        7.17       1.300
  YS02001895           JUNCTION      0.00   229.88     0  02:43           0        1.65       0.254
  YS02001625           JUNCTION      0.00   219.64     0  02:51           0        1.08       3.727
  YS02163301           JUNCTION      0.00   157.85     0  02:27           0        1.04       2.323
  YS02163601           JUNCTION      0.11   268.71     0  02:58      0.0031        2.29       1.320
  YS02164001           JUNCTION      0.00   268.41     0  02:58           0        2.28       0.872
  YS02001647           JUNCTION      0.00   396.48     0  02:57           0        2.95       0.954
  YSB1154              JUNCTION     20.99    20.99     0  02:12        0.07      0.0712       2.068
  YSB6556              JUNCTION      0.00    21.01     0  02:14           0      0.0721       1.761
  YSB1174              JUNCTION     20.11    20.11     0  02:07      0.0508      0.0517       2.544
  YSB1171              JUNCTION      0.00    38.89     0  02:13           0       0.129       5.137
  YS02006553           JUNCTION      0.00   437.07     0  02:48           0        3.56       0.410
  YS02006561           JUNCTION      0.00   650.77     0  02:50           0        5.04       0.006
  YS02006556           JUNCTION      0.00   431.01     0  02:48           0        3.57       0.300
  YS02006558           JUNCTION    184.83   627.58     0  02:54        1.53        5.07       0.100
  YS02001783           JUNCTION      0.00   635.01     0  02:43           0        5.04       0.034
  YS02001784           JUNCTION      1.06   635.77     0  02:43      0.0299        5.07       0.059
  YS02001786           JUNCTION      0.06   635.62     0  02:43     0.00159        5.07       0.056
  YS02001788           JUNCTION      0.07   635.84     0  02:43       0.002        5.07       0.032
  YS02001790           JUNCTION      0.15   639.81     0  02:43     0.00437        5.07       0.038
  YS02001791           JUNCTION      0.00   639.93     0  02:43           0        5.07       0.018
  YS02001793           JUNCTION      0.00   676.18     0  02:38           0        5.07       0.006
  WS02004139           JUNCTION      0.32   290.33     0  00:00     0.00905        6.59       0.496
  WSC                  OUTFALL       0.00   898.19     0  02:33           0        13.5       0.000
  3                    OUTFALL       0.00   597.65     0  00:00           0        2.91       0.000
  4                    OUTFALL       0.00    26.13     0  02:25           0      0.0163       0.000
  5                    OUTFALL       0.00     0.00     0  00:00           0           0       0.000 ltr
  JK-storage           STORAGE       0.00   821.70     0  02:38           0        5.22     -14.516
  CC-storage           STORAGE       0.00  1020.59     0  02:52           0        6.46       1.015
  XR-storage           STORAGE     418.12   418.12     0  02:54         7.9         8.5      -0.000
  
  
  **********************
  Node Surcharge Summary
  **********************
  
  Surcharging occurs when water rises above the top of the highest conduit.
  ---------------------------------------------------------------------
                                               Max. Height   Min. Depth
                                   Hours       Above Crown    Below Rim
  Node                 Type      Surcharged         Meters       Meters
  ---------------------------------------------------------------------
  WS02004404           JUNCTION        0.10          0.007        2.773
  WS02006109           JUNCTION        1.18          0.215        1.605
  WS02006110           JUNCTION        0.37          0.052        1.798
  WS02006112           JUNCTION        0.65          0.194        1.486
  WS02006230           JUNCTION        0.04          0.003        1.567
  WS02006231           JUNCTION        0.19          0.033        1.497
  WS02006232           JUNCTION        0.90          0.162        1.318
  WS02006234           JUNCTION        0.30          0.065        1.175
  WS02006235           JUNCTION        0.35          0.095        1.195
  WS02006238           JUNCTION        0.58          0.111        1.319
  WS02006240           JUNCTION        0.16          0.019        1.371
  WS02006242           JUNCTION        0.28          0.052        0.768
  WS02006239           JUNCTION        0.27          0.051        1.239
  WS02006256           JUNCTION        0.01          1.050        0.000
  WS02006228           JUNCTION        1.15          0.262        1.938
  YS02001748           JUNCTION        4.20          0.219        0.971
  YS02001751           JUNCTION        4.70          0.917        0.283
  YS02001754           JUNCTION        5.23          0.849        0.301
  YS02001762           JUNCTION        5.49          1.017        0.133
  YS02001765           JUNCTION        5.47          0.961        0.139
  YS02001767           JUNCTION        5.43          0.912        0.118
  YS02001770           JUNCTION        5.36          0.890        0.030
  YS02001774           JUNCTION        5.49          0.994        0.056
  YS02001779           JUNCTION        5.17          0.680        0.000
  YS02001759           JUNCTION        5.50          1.048        0.162
  YS02001907           JUNCTION        0.21          0.036        0.914
  YS02001619           JUNCTION        4.59          0.610        0.000
  YS02001629           JUNCTION        4.63          0.470        0.000
  YS02001641           JUNCTION        5.47          0.940        0.160
  YS02001644           JUNCTION        5.47          0.920        0.000
  YS02001652           JUNCTION        5.25          1.094        0.036
  YS02001655           JUNCTION        4.74          1.200        0.000
  YS02001658           JUNCTION        4.22          1.075        0.225
  YS02001661           JUNCTION        0.04          0.329        1.061
  YS02001622           JUNCTION        4.72          0.608        0.012
  YS02001633           JUNCTION        5.45          0.923        0.137
  YS02001649           JUNCTION        5.49          1.050        0.000
  YS02001757           JUNCTION        5.54          1.154        0.056
  YS02001625           JUNCTION        5.28          0.780        0.000
  YS02163301           JUNCTION        5.44          0.892        0.138
  YS02163601           JUNCTION        5.48          0.990        0.090
  YS02164001           JUNCTION        5.46          0.923        0.177
  YS02001647           JUNCTION        5.26          0.799        0.101
  YS02006553           JUNCTION        0.43          0.052        1.138
  YS02001783           JUNCTION        0.13          0.396        1.204
  YS02001784           JUNCTION        0.36          0.532        0.958
  YS02001786           JUNCTION        0.16          0.758        0.672
  YS02001788           JUNCTION        0.08          0.698        0.782
  YS02001790           JUNCTION        1.64          1.157        0.000
  YS02001791           JUNCTION        1.77          1.871        0.049
  YS02001793           JUNCTION        1.96          1.458        1.142
  
  
  *********************
  Node Flooding Summary
  *********************
  
  Flooding refers to all water that overflows a node, whether it ponds or not.
  --------------------------------------------------------------------------
                                                             Total   Maximum
                                 Maximum   Time of Max       Flood    Ponded
                        Hours       Rate    Occurrence      Volume     Depth
  Node                 Flooded       LPS   days hr:min    10^6 ltr    Meters
  --------------------------------------------------------------------------
  WS02006256              0.01    406.11      0  00:00       0.001     0.000
  YS02001779              1.12     11.72      0  02:54       0.005     0.000
  YS02001619              0.01     12.78      0  03:23       0.000     0.000
  YS02001629              0.01     16.30      0  03:26       0.000     0.000
  YS02001644              3.86    322.48      0  04:23       2.176     0.000
  YS02001655              0.01    140.60      0  02:57       0.000     0.000
  YS02001649              0.01      5.16      0  04:04       0.000     0.000
  YS02001625              0.03     13.20      0  03:33       0.000     0.000
  YS02001790              0.01    223.20      0  02:40       0.000     0.000
  JK-storage              1.34    539.73      0  02:43       0.828     0.000
  XR-storage              4.18    322.48      0  03:00       0.991     0.000
  
  
  **********************
  Storage Volume Summary
  **********************
  
  --------------------------------------------------------------------------------------------------
                         Average     Avg  Evap Exfil       Maximum     Max    Time of Max    Maximum
                          Volume    Pcnt  Pcnt  Pcnt        Volume    Pcnt     Occurrence    Outflow
  Storage Unit           1000 m3    Full  Loss  Loss       1000 m3    Full    days hr:min        LPS
  --------------------------------------------------------------------------------------------------
  JK-storage               0.131      45     0     0         0.291     100       0  02:41     600.00
  CC-storage               2.772      18     0     0         3.809      24       0  05:54     200.00
  XR-storage               0.817      88     0     0         0.926     100       0  03:00     285.00
  
  
  ***********************
  Outfall Loading Summary
  ***********************
  
  -----------------------------------------------------------
                         Flow       Avg       Max       Total
                         Freq      Flow      Flow      Volume
  Outfall Node           Pcnt       LPS       LPS    10^6 ltr
  -----------------------------------------------------------
  WSC                   99.99    548.06    898.19      13.464
  3                     93.26    154.76    597.65       2.908
  4                      6.38     13.35     26.13       0.016
  5                      0.00      0.00      0.00       0.000
  -----------------------------------------------------------
  System                49.91    716.18   1126.69      16.388
  
  
  ********************
  Link Flow Summary
  ********************
  
  -----------------------------------------------------------------------------
                                 Maximum  Time of Max   Maximum    Max/    Max/
                                  |Flow|   Occurrence   |Veloc|    Full    Full
  Link                 Type          LPS  days hr:min     m/sec    Flow   Depth
  -----------------------------------------------------------------------------
  WS02003066WSF200     CONDUIT    596.64     0  02:29      2.76    0.10    0.25
  WS02006287WS02006284 CONDUIT    330.11     0  02:14      1.90    0.15    0.27
  WS02006284WS02006280 CONDUIT    330.24     0  02:15      2.14    0.14    0.25
  WS02006280WS02006229 CONDUIT    330.24     0  02:15      3.44    0.07    0.18
  WS02006229WS02006228 CONDUIT    592.86     0  02:22      1.18    1.96    1.00
  WS02006256WS02006235 CONDUIT    177.52     0  00:01      2.73    1.88    1.00
  WS02006253WS02006251 CONDUIT     65.11     0  02:11      0.58    0.20    0.76
  WS02006252WS02006251 CONDUIT    201.09     0  02:13      1.97    0.74    0.76
  WS02006251WS02006249 CONDUIT    263.04     0  02:17      1.02    0.76    0.77
  WS02006249WS02006248 CONDUIT    260.38     0  02:18      1.10    1.43    0.77
  WS02006248WS02006247 CONDUIT    257.46     0  02:18      1.07    0.56    0.82
  WS02006247WS02006245 CONDUIT    257.28     0  02:41      1.01    2.04    0.87
  WS02006245WS02006243 CONDUIT    261.66     0  02:41      1.02    0.77    0.90
  WS02006243WS02006242 CONDUIT    269.23     0  02:41      0.81    0.58    0.97
  WS02006242WS02006240 CONDUIT    273.66     0  02:40      0.74    1.09    1.00
  WS02006240WS02006239 CONDUIT    279.90     0  02:40      0.77    0.88    1.00
  WS02006239WS02006238 CONDUIT    284.35     0  02:40      0.74    0.91    1.00
  WS02006238WS02006235 CONDUIT    285.70     0  02:40      1.32    0.64    1.00
  WS02006235WS02006234 CONDUIT    325.43     0  03:00      0.94    3.43    1.00
  WS02006234WS02006232 CONDUIT    325.98     0  03:00      1.17    0.66    1.00
  WS02006232WS02006231 CONDUIT    326.12     0  03:08      0.94    0.68    1.00
  WS02006231WS02006230 CONDUIT    327.20     0  03:09      1.29    4.96    1.00
  WS02006230WS02006229 CONDUIT    339.24     0  03:08      0.88    7.55    1.00
  WS02006228WS02006109 CONDUIT    592.84     0  02:22      1.18    2.59    1.00
  WS02006116WS02004401 CONDUIT    600.91     0  02:25      0.81    0.83    0.90
  WS02006115WS02006116 CONDUIT    602.94     0  02:24      0.91    0.77    0.82
  WS02006113WS02006111 CONDUIT    622.17     0  02:23      2.55    0.75    0.49
  WS02006112WS02006115 CONDUIT    617.95     0  02:24      0.83    0.36    0.90
  WS02006111WS02006112 CONDUIT    601.60     0  02:24      1.64    0.29    0.68
  WS02006110WS02006113 CONDUIT    594.39     0  02:22      1.38    0.54    0.80
  WS02006109WS02006110 CONDUIT    594.04     0  02:22      1.18    1.14    1.00
  WS02004411WS02004412 CONDUIT    596.80     0  02:28      0.98    0.85    0.73
  WS02004401WS02004402 CONDUIT    600.74     0  02:25      0.80    0.72    0.91
  WS02004413WS02003067 CONDUIT    596.47     0  02:29      1.18    0.26    0.61
  WS02004412WS02004413 CONDUIT    596.63     0  02:28      0.88    0.40    0.81
  WS02004410WS02004411 CONDUIT    597.30     0  02:28      0.98    0.82    0.72
  WS02004409WS02004410 CONDUIT    598.12     0  02:27      1.01    0.77    0.71
  WS02004407WS02004409 CONDUIT    599.59     0  02:26      1.53    0.21    0.51
  WS02004406WS02004407 CONDUIT    599.82     0  02:26      1.11    0.27    0.65
  WS02004405WS02004406 CONDUIT    599.96     0  02:25      0.77    1.18    0.99
  WS02004404WS02004405 CONDUIT    600.20     0  02:25      0.76    5.88    1.00
  WS02004403WS02004404 CONDUIT    599.90     0  02:25      0.77    0.43    0.97
  WS02004402WS02004403 CONDUIT    599.72     0  02:25      0.79    0.86    0.93
  WS02004139WS02001211 CONDUIT    285.55     0  03:36      0.80    0.36    0.54
  WS02004138WS02004139 CONDUIT    290.01     0  00:00      3.34    0.06    0.39
  WS02003067WS02003066 CONDUIT    596.58     0  02:29      1.28    0.19    0.43
  WS02001213WS02003059 CONDUIT    293.88     0  03:35      0.80    0.48    0.74
  WS02001212WS02001213 CONDUIT    293.41     0  03:35      1.19    0.45    0.42
  WS02001211WS02001212 CONDUIT    293.16     0  03:36      0.67    0.22    0.59
  WS02003072WS02003073 CONDUIT    896.42     0  02:33      1.70    1.94    0.47
  WS02003069WS02003072 CONDUIT    896.49     0  02:32      1.60    0.43    0.50
  WS02003060WS02003069 CONDUIT    896.33     0  02:32      1.85    0.35    0.44
  WS02003059WS02003060 CONDUIT    294.52     0  03:35      0.82    0.19    0.64
  HS02004901HS02004770 CONDUIT     16.87     0  02:11      0.06    0.06    0.38
  HS02004876HS02004881 CONDUIT     58.22     0  02:15      0.83    0.62    0.10
  HS02004870HS02004876 CONDUIT     46.60     0  02:15      0.57    0.03    0.12
  HS02004842HS02004848 CONDUIT      7.98     0  02:27      0.04    0.00    0.29
  HS02004837HS02004842 CONDUIT      8.26     0  02:28      0.41    0.00    0.31
  HS02004830HS02004837 CONDUIT     33.73     0  02:15      0.51    0.03    0.09
  HS02004824HS02004830 CONDUIT     33.87     0  02:16      0.55    0.04    0.09
  HS02004817HS02004824 CONDUIT     58.51     0  02:18      0.19    0.03    0.44
  HS02004770HS02004777 CONDUIT     85.88     0  02:11      0.31    0.16    0.40
  HS02004799HS02004480 CONDUIT    211.88     0  02:12      0.75    0.27    0.40
  HS02004792HS02004799 CONDUIT    193.54     0  02:12      0.86    0.12    0.32
  HS02004788HS02004792 CONDUIT    112.44     0  02:13      0.99    0.07    0.16
  HS02004785HS02004788 CONDUIT     85.51     0  02:13      0.65    0.64    0.19
  HS02004777HS02004785 CONDUIT     85.45     0  02:12      0.37    0.11    0.33
  HS02004480HS02004478 CONDUIT    250.50     0  02:13      1.17    1.06    0.31
  HS02004479HS02004480 CONDUIT     39.34     0  02:15      0.16    0.04    0.39
  HS02004862HS02004870 CONDUIT     34.43     0  02:16      0.58    0.04    0.09
  HS02004848HS02004852 CONDUIT     14.76     0  02:15      0.39    0.02    0.05
  HS02004856HS02004862 CONDUIT     23.76     0  02:15      0.43    0.02    0.08
  HS02004852HS02004856 CONDUIT     14.72     0  02:16      0.19    0.02    0.11
  HS02004802HS02004478 CONDUIT     82.62     0  02:18      0.38    0.07    0.32
  HS02004478WS02006287 CONDUIT    330.07     0  02:14      1.60    0.09    0.23
  HS02004817HS02004807 CONDUIT     60.08     0  02:20      0.15    0.04    0.58
  HS02004807HS02004802 CONDUIT     81.95     0  02:17      0.32    0.16    0.37
  YS02001759YS02001757 CONDUIT    368.74     0  02:55      0.47    0.26    1.00
  YS02001762YS02001759 CONDUIT    201.64     0  02:55      0.26    0.23    1.00
  YS02001765YS02001762 CONDUIT    198.35     0  02:55      0.25    0.19    1.00
  YS02001770YS02001767 CONDUIT    192.37     0  02:55      0.31    0.76    1.00
  YS02001774YS02001770 CONDUIT     58.60     0  02:12      0.15    0.04    1.00
  YS02001779YS02001774 CONDUIT     57.22     0  02:23      0.08    0.03    1.00
  YS02001649YS02001757 CONDUIT    598.53     0  02:49      0.76    0.36    1.00
  YS02001767YS02001765 CONDUIT    194.63     0  02:55      0.26    0.24    1.00
  YS02006561YS02001783 CONDUIT    635.01     0  02:43      2.09    0.33    0.75
  YS02001783YS02001784 CONDUIT    634.71     0  02:43      1.52    0.87    1.00
  YS02001784YS02001785 CONDUIT    635.56     0  02:43      1.63    1.48    1.00
  YS02001788YS02001790 CONDUIT    639.66     0  02:43      2.16    0.47    1.00
  YS02001790YS02001791 CONDUIT    639.93     0  02:43      2.56    0.70    1.00
  YS02001791YS02001793 CONDUIT    676.18     0  02:38      5.23    0.29    1.00
  YS02001910YS02001907 CONDUIT    209.78     0  03:03      0.49    0.12    0.90
  YS02001786YS02001788 CONDUIT    635.76     0  02:43      2.07    1.22    1.00
  YS02001915YS02001910 CONDUIT    202.00     0  02:58      0.45    0.10    0.70
  YS02001918YS02001915 CONDUIT     75.01     0  03:02      0.44    0.04    0.42
  YS02001923YS02001920 CONDUIT     59.02     0  03:01      0.56    0.03    0.21
  YS02001926YS02001923 CONDUIT     58.99     0  03:01      0.63    0.08    0.18
  YS02001929YS02001926 CONDUIT     59.02     0  03:01      0.68    0.03    0.17
  YS02001920YS02001918 CONDUIT     67.11     0  03:03      0.56    0.06    0.28
  YS02001629YS02163301 CONDUIT    157.85     0  02:27      0.20    0.19    1.00
  YS02001619YS02001622 CONDUIT    165.33     0  02:51      0.74    0.24    1.00
  YS02001622YS02001625 CONDUIT    219.64     0  02:51      0.31    0.12    1.00
  YS02001625YS02001629 CONDUIT    219.29     0  02:51      0.30    0.10    1.00
  YS02163301YS02001633 CONDUIT    159.11     0  02:27      0.20    0.15    1.00
  YS02163601YS02164001 CONDUIT    268.41     0  02:58      0.34    0.24    1.00
  YS02164001YS02001641 CONDUIT    267.80     0  02:58      0.34    0.37    1.00
  YS02001641YS02001644 CONDUIT    268.45     0  02:29      0.34    0.87    1.00
  YS02001647YS02001649 CONDUIT    414.61     0  02:28      0.53    0.22    1.00
  YS02006553YS02006556 CONDUIT    431.01     0  02:48      0.55    0.37    0.98
  YS02006556YS02006558 CONDUIT    446.06     0  02:54      0.57    0.35    1.00
  YSB6556YSB1171       CONDUIT     21.39     0  02:15      0.08    0.02    0.66
  YS02001907YS02006553 CONDUIT    437.07     0  02:48      0.49    0.51    1.00
  YS02006558YS02006561 CONDUIT    650.77     0  02:50      3.11    1.44    0.76
  YS02001633YS02163601 CONDUIT    268.60     0  02:58      0.34    0.28    1.00
  YS02001644YS02001647 CONDUIT    396.48     0  02:57      0.50    0.23    1.00
  YS02001745YS02001748 CONDUIT    336.38     0  03:23      1.58    0.13    0.93
  YS02001748YS02001751 CONDUIT    441.11     0  02:49      1.22    0.22    1.00
  YS02001751YS02001754 CONDUIT    208.51     0  02:51      1.04    0.10    1.00
  YS02001754YS02001757 CONDUIT    209.85     0  02:51      0.33    0.08    1.00
  YS02001882YS02001884 CONDUIT     12.76     0  03:09      0.06    0.01    0.64
  YS02001884YS02001887 CONDUIT     18.08     0  02:50      0.07    0.02    0.73
  YS02001890YS02001895 CONDUIT    229.88     0  02:43      0.40    0.11    0.70
  YS02001895YS02001898 CONDUIT    230.96     0  02:49      0.52    0.40    0.56
  YS02001898YS02001901 CONDUIT    231.91     0  02:42      0.45    0.15    0.64
  YS02001901YS02001904 CONDUIT    231.37     0  02:43      0.41    0.36    0.69
  YS02001904YS02001907 CONDUIT    244.42     0  02:45      0.35    0.09    0.84
  YS02001887YS02001890 CONDUIT    225.44     0  02:46      0.34    0.39    0.79
  YS02001652YS02001649 CONDUIT    216.99     0  02:56      0.34    0.11    1.00
  YS02001655YS02001652 CONDUIT    216.64     0  02:56      1.10    0.11    1.00
  YS02001658YS02001655 CONDUIT    389.34     0  02:56      1.41    0.17    1.00
  YS02001661YS02001658 CONDUIT    512.14     0  03:18      1.66    0.20    1.00
  YS02001664YS02001661 CONDUIT    442.44     0  04:00      1.45    0.14    0.70
  YSB1154YSB6556       CONDUIT     21.01     0  02:14      0.19    0.04    0.55
  YSB1174YSB1171       CONDUIT     18.73     0  02:10      0.07    0.03    0.66
  YSB1171HS02004479    CONDUIT     39.06     0  02:14      0.54    0.03    0.52
  HS02004881HS02006253 CONDUIT     64.87     0  02:15      2.02    0.01    0.17
  YS02001793JiankangQianchi CONDUIT    821.70     0  02:38     13.76    0.07    1.00
  YS02001757CaochengTiaoxuchi CONDUIT   1020.59     0  02:52      2.28    0.45    1.00
  WSF200WS02003060     CONDUIT    596.88     0  02:29      1.84    0.13    0.35
  1                    CONDUIT    898.19     0  02:33      3.23    0.31    0.38
  2                    CONDUIT     26.13     0  02:25      3.29    0.06    0.17
  3                    CONDUIT    597.65     0  00:00     10.05    0.95    0.86
  4                    CONDUIT      0.00     0  00:00      0.00    0.00    0.00
  CC-Pump-1            PUMP       200.00     0  02:13              1.00
  CC-Pump-2            PUMP       200.00     0  03:00              1.00
  JK-Pump-1            PUMP       300.00     0  00:00              1.00
  JK-Pump-2            PUMP       300.00     0  00:00              1.00
  XR-Pump-1            PUMP        95.00     0  02:20              1.00
  XR-Pump-2            PUMP        95.00     0  00:00              1.00
  XR-Pump-3            PUMP        95.00     0  00:00              1.00
  XR-Pump-4            PUMP        95.00     0  00:00              1.00
  
  
  ***************************
  Flow Classification Summary
  ***************************
  
  -------------------------------------------------------------------------------------
                      Adjusted    ---------- Fraction of Time in Flow Class ---------- 
                       /Actual         Up    Down  Sub   Sup   Up    Down  Norm  Inlet 
  Conduit               Length    Dry  Dry   Dry   Crit  Crit  Crit  Crit  Ltd   Ctrl  
  -------------------------------------------------------------------------------------
  WS02003066WSF200        1.00   0.08  0.00  0.00  0.00  0.92  0.00  0.00  0.63  0.00
  WS02006287WS02006284    1.00   0.04  0.02  0.00  0.63  0.32  0.00  0.00  0.75  0.00
  WS02006284WS02006280    1.00   0.04  0.00  0.00  0.00  0.00  0.00  0.96  0.00  0.00
  WS02006280WS02006229    1.00   0.04  0.00  0.00  0.00  0.00  0.00  0.96  0.00  0.00
  WS02006229WS02006228    1.00   0.00  0.00  0.00  0.98  0.00  0.00  0.02  0.00  0.00
  WS02006256WS02006235    1.00   0.00  0.00  0.00  0.99  0.01  0.00  0.00  0.00  0.00
  WS02006253WS02006251    1.00   0.03  0.01  0.00  0.96  0.00  0.00  0.00  0.00  0.00
  WS02006252WS02006251    1.00   0.08  0.00  0.00  0.00  0.00  0.92  0.00  0.00  0.00
  WS02006251WS02006249    1.00   0.00  0.00  0.00  1.00  0.00  0.00  0.00  0.50  0.00
  WS02006249WS02006248    1.00   0.00  0.02  0.00  0.69  0.00  0.29  0.00  0.00  0.00
  WS02006248WS02006247    1.00   0.02  0.00  0.00  0.97  0.00  0.00  0.01  0.40  0.00
  WS02006247WS02006245    1.00   0.02  0.00  0.00  0.96  0.00  0.00  0.02  0.00  0.00
  WS02006245WS02006243    1.00   0.02  0.00  0.00  0.93  0.00  0.00  0.05  0.01  0.00
  WS02006243WS02006242    1.00   0.01  0.01  0.00  0.98  0.00  0.00  0.00  0.26  0.00
  WS02006242WS02006240    1.00   0.01  0.00  0.00  0.99  0.00  0.00  0.00  0.00  0.00
  WS02006240WS02006239    1.00   0.00  0.00  0.00  0.95  0.00  0.00  0.05  0.02  0.00
  WS02006239WS02006238    1.00   0.00  0.00  0.00  1.00  0.00  0.00  0.00  0.00  0.00
  WS02006238WS02006235    1.00   0.00  0.00  0.00  1.00  0.00  0.00  0.00  0.00  0.00
  WS02006235WS02006234    1.00   0.00  0.00  0.00  0.94  0.00  0.06  0.00  0.00  0.00
  WS02006234WS02006232    1.00   0.00  0.00  0.00  1.00  0.00  0.00  0.00  0.00  0.00
  WS02006232WS02006231    1.00   0.00  0.00  0.00  0.99  0.00  0.01  0.00  0.00  0.00
  WS02006231WS02006230    1.00   0.00  0.00  0.00  0.47  0.00  0.52  0.00  0.00  0.00
  WS02006230WS02006229    1.00   0.00  0.00  0.00  0.98  0.00  0.00  0.02  0.01  0.00
  WS02006228WS02006109    1.00   0.00  0.00  0.00  0.99  0.00  0.00  0.00  0.00  0.00
  WS02006116WS02004401    1.00   0.02  0.00  0.00  0.98  0.00  0.00  0.00  0.00  0.00
  WS02006115WS02006116    1.00   0.02  0.00  0.00  0.96  0.00  0.00  0.01  0.01  0.00
  WS02006113WS02006111    1.00   0.02  0.00  0.00  0.00  0.98  0.00  0.00  0.13  0.00
  WS02006112WS02006115    1.00   0.02  0.00  0.00  0.98  0.00  0.00  0.00  0.00  0.00
  WS02006111WS02006112    1.00   0.02  0.00  0.00  0.98  0.00  0.00  0.00  0.97  0.00
  WS02006110WS02006113    1.00   0.02  0.00  0.00  0.98  0.00  0.00  0.00  0.00  0.00
  WS02006109WS02006110    1.00   0.00  0.02  0.00  0.98  0.00  0.00  0.00  0.00  0.00
  WS02004411WS02004412    1.00   0.05  0.00  0.00  0.95  0.00  0.00  0.00  0.00  0.00
  WS02004401WS02004402    1.00   0.02  0.00  0.00  0.98  0.00  0.00  0.00  0.00  0.00
  WS02004413WS02003067    1.00   0.06  0.01  0.00  0.00  0.00  0.93  0.00  0.00  0.00
  WS02004412WS02004413    1.00   0.06  0.00  0.00  0.94  0.00  0.00  0.00  0.03  0.00
  WS02004410WS02004411    1.00   0.05  0.00  0.00  0.95  0.00  0.00  0.00  0.00  0.00
  WS02004409WS02004410    1.00   0.05  0.00  0.00  0.95  0.00  0.00  0.00  0.00  0.00
  WS02004407WS02004409    1.00   0.05  0.00  0.00  0.94  0.00  0.00  0.00  0.80  0.00
  WS02004406WS02004407    1.00   0.00  0.05  0.00  0.95  0.00  0.00  0.00  0.00  0.00
  WS02004405WS02004406    1.00   0.00  0.00  0.00  1.00  0.00  0.00  0.00  0.02  0.00
  WS02004404WS02004405    1.00   0.00  0.00  0.00  1.00  0.00  0.00  0.00  0.00  0.00
  WS02004403WS02004404    1.00   0.00  0.02  0.00  0.98  0.00  0.00  0.00  0.02  0.00
  WS02004402WS02004403    1.00   0.02  0.00  0.00  0.98  0.00  0.00  0.00  0.00  0.00
  WS02004139WS02001211    1.00   0.00  0.00  0.00  0.99  0.00  0.01  0.00  0.00  0.00
  WS02004138WS02004139    1.00   0.00  0.00  0.00  0.99  0.01  0.00  0.00  1.00  0.00
  WS02003067WS02003066    1.00   0.07  0.01  0.00  0.92  0.00  0.00  0.00  0.00  0.00
  WS02001213WS02003059    1.00   0.00  0.00  0.00  0.99  0.00  0.00  0.00  0.00  0.00
  WS02001212WS02001213    1.00   0.01  0.00  0.00  0.68  0.00  0.32  0.00  0.00  0.00
  WS02001211WS02001212    1.00   0.00  0.01  0.00  0.99  0.00  0.00  0.00  0.00  0.00
  WS02003072WS02003073    1.00   0.00  0.00  0.00  0.00  0.00  0.00  1.00  0.00  0.00
  WS02003069WS02003072    1.00   0.00  0.00  0.00  0.99  0.01  0.00  0.00  0.47  0.00
  WS02003060WS02003069    1.00   0.00  0.00  0.00  0.97  0.03  0.00  0.00  0.04  0.00
  WS02003059WS02003060    1.00   0.00  0.00  0.00  0.99  0.01  0.00  0.00  0.01  0.00
  HS02004901HS02004770    1.00   0.04  0.00  0.00  0.96  0.00  0.00  0.00  0.02  0.00
  HS02004876HS02004881    1.00   0.02  0.00  0.00  0.95  0.03  0.00  0.00  0.00  0.00
  HS02004870HS02004876    1.00   0.01  0.00  0.00  0.99  0.00  0.00  0.00  0.95  0.00
  HS02004842HS02004848    1.00   0.00  0.04  0.00  0.96  0.00  0.00  0.00  0.66  0.00
  HS02004837HS02004842    1.00   0.00  0.00  0.00  0.99  0.01  0.00  0.00  0.11  0.00
  HS02004830HS02004837    1.00   0.00  0.00  0.00  1.00  0.00  0.00  0.00  0.99  0.00
  HS02004824HS02004830    1.00   0.00  0.00  0.00  1.00  0.00  0.00  0.00  0.00  0.00
  HS02004817HS02004824    1.00   0.00  0.00  0.00  1.00  0.00  0.00  0.00  1.00  0.00
  HS02004770HS02004777    1.00   0.00  0.04  0.00  0.96  0.00  0.00  0.00  0.06  0.00
  HS02004799HS02004480    1.00   0.00  0.02  0.00  0.94  0.00  0.03  0.00  0.00  0.00
  HS02004792HS02004799    1.00   0.00  0.00  0.00  0.98  0.02  0.00  0.00  0.98  0.00
  HS02004788HS02004792    1.00   0.00  0.00  0.00  0.98  0.02  0.00  0.00  0.98  0.00
  HS02004785HS02004788    1.00   0.00  0.00  0.00  1.00  0.00  0.00  0.00  0.00  0.00
  HS02004777HS02004785    1.00   0.00  0.00  0.00  1.00  0.00  0.00  0.00  0.19  0.00
  HS02004480HS02004478    1.00   0.05  0.00  0.00  0.69  0.00  0.00  0.27  0.00  0.00
  HS02004479HS02004480    1.00   0.02  0.00  0.00  0.98  0.00  0.00  0.00  0.15  0.00
  HS02004862HS02004870    1.00   0.00  0.00  0.00  1.00  0.00  0.00  0.00  0.06  0.00
  HS02004848HS02004852    1.00   0.04  0.00  0.00  0.96  0.00  0.00  0.00  0.71  0.00
  HS02004856HS02004862    1.00   0.00  0.07  0.00  0.93  0.00  0.00  0.00  0.75  0.00
  HS02004852HS02004856    1.00   0.04  0.01  0.00  0.95  0.00  0.00  0.00  0.83  0.00
  HS02004802HS02004478    1.00   0.04  0.00  0.00  0.95  0.00  0.00  0.00  0.01  0.00
  HS02004478WS02006287    1.00   0.05  0.00  0.00  0.79  0.16  0.00  0.00  0.72  0.00
  HS02004817HS02004807    1.00   0.00  0.04  0.00  0.96  0.00  0.00  0.00  0.00  0.00
  HS02004807HS02004802    1.00   0.04  0.00  0.00  0.95  0.00  0.00  0.00  0.01  0.00
  YS02001759YS02001757    1.00   0.00  0.00  0.00  1.00  0.00  0.00  0.00  0.17  0.00
  YS02001762YS02001759    1.00   0.00  0.00  0.00  1.00  0.00  0.00  0.00  0.04  0.00
  YS02001765YS02001762    1.00   0.00  0.00  0.00  1.00  0.00  0.00  0.00  0.21  0.00
  YS02001770YS02001767    1.00   0.00  0.00  0.00  1.00  0.00  0.00  0.00  0.00  0.00
  YS02001774YS02001770    1.00   0.00  0.05  0.00  0.95  0.00  0.00  0.00  0.06  0.00
  YS02001779YS02001774    1.00   0.00  0.00  0.00  1.00  0.00  0.00  0.00  0.25  0.00
  YS02001649YS02001757    1.00   0.00  0.00  0.00  1.00  0.00  0.00  0.00  0.19  0.00
  YS02001767YS02001765    1.00   0.00  0.00  0.00  1.00  0.00  0.00  0.00  0.01  0.00
  YS02006561YS02001783    1.00   0.07  0.00  0.00  0.30  0.64  0.00  0.00  0.67  0.00
  YS02001783YS02001784    1.00   0.00  0.07  0.00  0.93  0.00  0.00  0.00  0.00  0.00
  YS02001784YS02001785    1.00   0.00  0.00  0.00  1.00  0.00  0.00  0.00  0.24  0.00
  YS02001788YS02001790    1.00   0.00  0.00  0.00  0.42  0.58  0.00  0.00  0.66  0.00
  YS02001790YS02001791    1.00   0.00  0.00  0.00  0.38  0.62  0.00  0.00  0.43  0.00
  YS02001791YS02001793    1.00   0.00  0.00  0.00  0.39  0.61  0.00  0.00  0.02  0.00
  YS02001910YS02001907    1.00   0.00  0.00  0.00  0.98  0.00  0.00  0.02  0.13  0.00
  YS02001786YS02001788    1.00   0.00  0.00  0.00  0.39  0.61  0.00  0.00  0.00  0.00
  YS02001915YS02001910    1.00   0.00  0.00  0.00  1.00  0.00  0.00  0.00  0.23  0.00
  YS02001918YS02001915    1.00   0.00  0.01  0.00  0.99  0.00  0.00  0.00  0.65  0.00
  YS02001923YS02001920    1.00   0.00  0.00  0.00  1.00  0.00  0.00  0.00  1.00  0.00
  YS02001926YS02001923    1.00   0.00  0.03  0.00  0.00  0.00  0.97  0.00  0.00  0.00
  YS02001929YS02001926    1.00   0.00  0.04  0.00  0.96  0.00  0.00  0.00  0.87  0.00
  YS02001920YS02001918    1.00   0.00  0.01  0.00  0.99  0.00  0.00  0.00  0.00  0.00
  YS02001629YS02163301    1.00   0.06  0.00  0.00  0.94  0.00  0.00  0.00  0.00  0.00
  YS02001619YS02001622    1.00   0.04  0.00  0.00  0.96  0.00  0.00  0.00  0.00  0.00
  YS02001622YS02001625    1.00   0.04  0.00  0.00  0.96  0.00  0.00  0.00  0.12  0.00
  YS02001625YS02001629    1.00   0.04  0.03  0.00  0.92  0.00  0.01  0.00  0.00  0.00
  YS02163301YS02001633    1.00   0.00  0.06  0.00  0.94  0.00  0.00  0.00  0.00  0.00
  YS02163601YS02164001    1.00   0.00  0.03  0.00  0.97  0.00  0.00  0.00  0.00  0.00
  YS02164001YS02001641    1.00   0.01  0.02  0.00  0.97  0.00  0.00  0.00  0.07  0.00
  YS02001641YS02001644    1.00   0.00  0.01  0.00  0.99  0.00  0.00  0.00  0.00  0.00
  YS02001647YS02001649    1.00   0.00  0.07  0.00  0.93  0.00  0.00  0.00  0.01  0.00
  YS02006553YS02006556    1.00   0.02  0.00  0.00  0.98  0.00  0.00  0.00  0.03  0.00
  YS02006556YS02006558    1.00   0.00  0.01  0.00  0.99  0.00  0.00  0.00  0.00  0.00
  YSB6556YSB1171          1.00   0.02  0.02  0.00  0.96  0.00  0.00  0.00  0.00  0.00
  YS02001907YS02006553    1.00   0.00  0.02  0.00  0.98  0.00  0.00  0.00  0.00  0.00
  YS02006558YS02006561    1.00   0.07  0.00  0.00  0.00  0.93  0.00  0.00  0.57  0.00
  YS02001633YS02163601    1.00   0.00  0.01  0.00  0.99  0.00  0.00  0.00  0.19  0.00
  YS02001644YS02001647    1.00   0.00  0.07  0.00  0.93  0.00  0.00  0.00  0.00  0.00
  YS02001745YS02001748    1.00   0.00  0.00  0.00  0.88  0.01  0.00  0.11  0.05  0.00
  YS02001748YS02001751    1.00   0.00  0.00  0.00  0.97  0.03  0.00  0.00  0.22  0.00
  YS02001751YS02001754    1.00   0.00  0.00  0.00  0.93  0.00  0.00  0.07  0.01  0.00
  YS02001754YS02001757    1.00   0.00  0.00  0.00  0.99  0.01  0.00  0.00  0.25  0.00
  YS02001882YS02001884    1.00   0.06  0.00  0.00  0.94  0.00  0.00  0.00  0.00  0.00
  YS02001884YS02001887    1.00   0.03  0.01  0.00  0.96  0.00  0.00  0.00  0.00  0.00
  YS02001890YS02001895    1.00   0.00  0.06  0.00  0.94  0.00  0.00  0.00  0.00  0.00
  YS02001895YS02001898    1.00   0.06  0.00  0.00  0.93  0.00  0.01  0.00  0.00  0.00
  YS02001898YS02001901    1.00   0.06  0.00  0.00  0.94  0.00  0.00  0.00  0.02  0.00
  YS02001901YS02001904    1.00   0.06  0.00  0.00  0.94  0.00  0.00  0.00  0.00  0.00
  YS02001904YS02001907    1.00   0.00  0.05  0.00  0.94  0.00  0.00  0.00  0.00  0.00
  YS02001887YS02001890    1.00   0.00  0.00  0.00  0.98  0.00  0.02  0.00  0.00  0.00
  YS02001652YS02001649    1.00   0.00  0.00  0.00  1.00  0.00  0.00  0.00  0.25  0.00
  YS02001655YS02001652    1.00   0.00  0.00  0.00  0.93  0.00  0.00  0.07  0.01  0.00
  YS02001658YS02001655    1.00   0.00  0.05  0.00  0.91  0.03  0.00  0.00  0.07  0.00
  YS02001661YS02001658    1.00   0.05  0.00  0.00  0.88  0.06  0.00  0.00  0.06  0.00
  YS02001664YS02001661    1.00   0.04  0.00  0.00  0.84  0.12  0.00  0.00  0.30  0.00
  YSB1154YSB6556          1.00   0.04  0.00  0.00  0.96  0.00  0.00  0.00  0.02  0.00
  YSB1174YSB1171          1.00   0.03  0.01  0.00  0.96  0.00  0.00  0.00  0.00  0.00
  YSB1171HS02004479       1.00   0.02  0.00  0.00  0.97  0.00  0.00  0.00  0.13  0.00
  HS02004881HS02006253    1.00   0.03  0.00  0.00  0.64  0.01  0.00  0.33  0.45  0.00
  YS02001793JiankangQianchi    1.00   0.00  0.00  0.00  0.55  0.44  0.00  0.00  0.12  0.00
  YS02001757CaochengTiaoxuchi    1.00   0.00  0.08  0.00  0.90  0.01  0.00  0.00  0.00  0.00
  WSF200WS02003060        1.00   0.00  0.08  0.00  0.73  0.19  0.00  0.00  0.24  0.00
  1                       1.00   0.00  0.00  0.00  0.00  1.00  0.00  0.00  0.25  0.00
  2                       1.00   0.94  0.00  0.00  0.00  0.06  0.00  0.00  0.01  0.00
  3                       1.00   0.07  0.00  0.00  0.00  0.93  0.00  0.00  0.00  0.00
  4                       1.00   1.00  0.00  0.00  0.00  0.00  0.00  0.00  0.00  0.00
  
  
  *************************
  Conduit Surcharge Summary
  *************************
  
  ----------------------------------------------------------------------------
                                                           Hours        Hours 
                         --------- Hours Full --------   Above Full   Capacity
  Conduit                Both Ends  Upstream  Dnstream   Normal Flow   Limited
  ----------------------------------------------------------------------------
  WS02006229WS02006228        1.15      1.20      1.15      3.64         1.15
  WS02006256WS02006235        5.73      5.73      7.83      4.99         0.01
  WS02006249WS02006248        0.01      0.01      0.01      3.47         0.01
  WS02006247WS02006245        0.01      0.01      0.01      3.54         0.01
  WS02006243WS02006242        0.01      0.01      0.28      0.01         0.01
  WS02006242WS02006240        0.16      0.16      0.34      0.07         0.01
  WS02006240WS02006239        0.20      0.20      0.27      0.01         0.01
  WS02006239WS02006238        0.35      0.35      0.57      0.01         0.01
  WS02006238WS02006235        0.51      0.51      0.74      0.01         0.01
  WS02006235WS02006234        0.30      0.30      0.35      5.75         0.01
  WS02006234WS02006232        0.34      0.34      0.90      0.01         0.01
  WS02006232WS02006231        0.19      0.19      0.90      0.01         0.01
  WS02006231WS02006230        0.04      0.04      0.22      5.71         0.01
  WS02006230WS02006229        1.65      3.58      1.65      5.78         1.65
  WS02006228WS02006109        1.18      1.36      1.18      3.77         1.18
  WS02006112WS02006115        0.01      0.01      0.65      0.01         0.01
  WS02006111WS02006112        0.01      0.01      3.66      0.01         0.01
  WS02006110WS02006113        0.01      0.01      1.26      0.01         0.01
  WS02006109WS02006110        0.37      0.37      1.36      0.38         0.01
  WS02004405WS02004406        0.01      0.01      0.01      0.52         0.01
  WS02004404WS02004405        0.01      0.10      0.01      5.70         0.01
  WS02004403WS02004404        0.01      0.01      0.10      0.01         0.01
  WS02003072WS02003073        0.01      0.01      0.01      3.72         0.01
  HS02004480HS02004478        0.01      0.01      0.01      0.14         0.01
  YS02001759YS02001757        5.50      5.50      5.54      0.01         0.01
  YS02001762YS02001759        5.49      5.49      5.50      0.01         0.01
  YS02001765YS02001762        5.47      5.47      5.49      0.01         0.01
  YS02001770YS02001767        5.42      5.44      5.43      0.01         0.55
  YS02001774YS02001770        5.36      5.36      5.49      0.01         0.01
  YS02001779YS02001774        5.17      5.17      5.49      0.01         0.01
  YS02001649YS02001757        5.49      5.49      5.54      0.01         0.01
  YS02001767YS02001765        5.43      5.43      5.47      0.01         0.01
  YS02006561YS02001783        0.01      0.01      0.13      0.01         0.01
  YS02001783YS02001784        0.13      0.13      0.36      0.01         0.01
  YS02001784YS02001785        0.16      0.36      0.16      1.10         0.15
  YS02001788YS02001790        0.07      0.07      1.64      0.01         0.01
  YS02001790YS02001791        1.64      1.64      1.77      0.01         0.01
  YS02001791YS02001793        1.77      1.77      2.02      0.01         0.01
  YS02001910YS02001907        0.01      0.01      0.21      0.01         0.01
  YS02001786YS02001788        0.07      0.16      0.07      0.68         0.06
  YS02001629YS02163301        5.37      5.37      5.44      0.01         0.01
  YS02001619YS02001622        4.59      4.59      4.72      0.01         0.02
  YS02001622YS02001625        4.72      4.72      5.28      0.01         0.01
  YS02001625YS02001629        4.63      4.63      5.28      0.01         0.01
  YS02163301YS02001633        5.44      5.44      5.47      0.01         0.01
  YS02163601YS02164001        5.46      5.46      5.48      0.01         0.01
  YS02164001YS02001641        5.46      5.46      5.47      0.01         0.02
  YS02001641YS02001644        5.47      5.47      5.47      0.01         0.67
  YS02001647YS02001649        5.26      5.26      5.49      0.01         0.01
  YS02006553YS02006556        0.01      0.01      0.43      0.01         0.01
  YS02006556YS02006558        0.01      0.01      0.62      0.01         0.01
  YS02001907YS02006553        1.12      1.12      1.31      0.01         0.01
  YS02006558YS02006561        0.01      0.01      0.01      0.96         0.01
  YS02001633YS02163601        5.45      5.45      5.48      0.01         0.01
  YS02001644YS02001647        5.26      5.26      5.47      0.01         0.01
  YS02001745YS02001748        0.01      0.01      4.20      0.01         0.01
  YS02001748YS02001751        4.36      4.36      4.70      0.01         0.01
  YS02001751YS02001754        4.70      4.70      5.23      0.01         0.01
  YS02001754YS02001757        5.27      5.27      5.54      0.01         0.01
  YS02001904YS02001907        0.01      0.01      0.53      0.01         0.01
  YS02001652YS02001649        5.28      5.28      5.49      0.01         0.01
  YS02001655YS02001652        4.74      4.74      5.25      0.01         0.01
  YS02001658YS02001655        4.22      4.22      4.74      0.01         0.01
  YS02001661YS02001658        0.03      0.03      4.22      0.01         0.01
  YS02001664YS02001661        0.01      0.01      0.60      0.01         0.01
  YS02001793JiankangQianchi        1.96      1.96      2.86      0.01         0.01
  YS02001757CaochengTiaoxuchi        4.35      4.35      5.54      0.01         0.01
  3                           0.01      0.01      0.01      0.01         0.01
  
  
  ***************
  Pumping Summary
  ***************
  
  ---------------------------------------------------------------------------------------------------------
                                                  Min       Avg       Max     Total     Power    % Time Off
                        Percent   Number of      Flow      Flow      Flow    Volume     Usage    Pump Curve
  Pump                 Utilized   Start-Ups       LPS       LPS       LPS  10^6 ltr     Kw-hr    Low   High
  ---------------------------------------------------------------------------------------------------------
  CC-Pump-1               44.62           2      0.00    183.90    200.00     2.313      3.52    0.0   14.7
  CC-Pump-2                6.38           1      0.00    131.38    200.00     0.240      0.59    0.0    0.0
  JK-Pump-1               70.21           2      0.00    147.34    300.00     1.846     26.38    0.0    0.0
  JK-Pump-2               89.36           2      0.00    193.14    300.00     3.428     37.91    0.0    0.0
  XR-Pump-1               40.42           2      0.00     84.97     95.00     0.969      5.79    0.0    0.0
  XR-Pump-2               40.43           2      0.00     83.58     95.00     0.998     15.83    0.0    0.0
  XR-Pump-3               85.11           2      0.00     92.82     95.00     2.223     19.43    0.0    0.0
  XR-Pump-4               93.62           3      0.00     89.83     95.00     2.394     21.98    0.0    0.0
  

  Analysis begun on:  Tue Dec 21 17:30:00 2021
  Analysis ended on:  Tue Dec 21 17:30:04 2021
  Total elapsed time: 00:00:04