
  EPA STORM WATER MANAGEMENT MODEL - VERSION 5.1 (Build 5.3.0.dev0)
  --------------------------------------------------------------

  WARNING 04: minimum elevation drop used for Conduit WS02004404WS02004405
  WARNING 03: negative offset ignored for Link YS02001904YS02001907
  
  *********************************************************
  NOTE: The summary statistics displayed in this report are
  based on results found at every computational time step,  
  not just on results from each reporting time step.
  *********************************************************
  
  ****************
  Analysis Options
  ****************
  Flow Units ............... LPS
  Process Models:
    Rainfall/Runoff ........ YES
    RDII ................... NO
    Snowmelt ............... NO
    Groundwater ............ NO
    Flow Routing ........... YES
    Ponding Allowed ........ NO
    Water Quality .......... NO
  Infiltration Method ...... HORTON
  Flow Routing Method ...... DYNWAVE
  Surcharge Method ......... EXTRAN
  Starting Date ............ 08/28/2015 08:00:00
  Ending Date .............. 08/28/2015 15:50:00
  Antecedent Dry Days ...... 8.0
  Report Time Step ......... 00:01:00
  Wet Time Step ............ 00:01:00
  Dry Time Step ............ 00:01:00
  Routing Time Step ........ 5.00 sec
  Variable Time Step ....... YES
  Maximum Trials ........... 8
  Number of Threads ........ 4
  Head Tolerance ........... 0.001500 m
  
  
  **************************        Volume         Depth
  Runoff Quantity Continuity     hectare-m            mm
  **************************     ---------       -------
  Total Precipitation ......         2.016         4.413
  Evaporation Loss .........         0.000         0.000
  Infiltration Loss ........         0.499         1.092
  Surface Runoff ...........         0.702         1.536
  Final Storage ............         0.816         1.786
  Continuity Error (%) .....        -0.017
  
  
  **************************        Volume        Volume
  Flow Routing Continuity        hectare-m      10^6 ltr
  **************************     ---------     ---------
  Dry Weather Inflow .......         0.616         6.165
  Wet Weather Inflow .......         0.701         7.012
  Groundwater Inflow .......         0.000         0.000
  RDII Inflow ..............         0.000         0.000
  External Inflow ..........         0.102         1.024
  External Outflow .........         1.105        11.055
  Flooding Loss ............         0.077         0.773
  Evaporation Loss .........         0.000         0.000
  Exfiltration Loss ........         0.000         0.000
  Initial Stored Volume ....         0.076         0.761
  Final Stored Volume ......         0.431         4.314
  Continuity Error (%) .....        -7.898
  
  
  *************************
  Highest Continuity Errors
  *************************
  Node JK-storage (-54.20%)
  Node HS02004842 (35.34%)
  Node YS02001884 (29.62%)
  Node YS02001774 (20.77%)
  Node YSB1171 (9.89%)
  
  
  ***************************
  Time-Step Critical Elements
  ***************************
  Link 3 (44.19%)
  Link WS02006252WS02006251 (36.46%)
  Link YS02001793JiankangQianchi (9.82%)
  Link WS02006280WS02006229 (3.33%)
  
  
  ********************************
  Highest Flow Instability Indexes
  ********************************
  Link WS02006113WS02006111 (61)
  Link WS02006111WS02006112 (21)
  Link YS02001767YS02001765 (5)
  Link YS02001759YS02001757 (5)
  Link YS02001754YS02001757 (5)
  
  
  *************************
  Routing Time Step Summary
  *************************
  Minimum Time Step           :     0.50 sec
  Average Time Step           :     1.44 sec
  Maximum Time Step           :     5.00 sec
  Percent in Steady State     :    -0.00
  Average Iterations per Step :     2.11
  Percent Not Converging      :     1.03
  
  
  ***************************
  Subcatchment Runoff Summary
  ***************************
  
  ------------------------------------------------------------------------------------------------------------------------------
                            Total      Total      Total      Total     Imperv       Perv      Total       Total     Peak  Runoff
                           Precip      Runon       Evap      Infil     Runoff     Runoff     Runoff      Runoff   Runoff   Coeff
  Subcatchment                 mm         mm         mm         mm         mm         mm         mm    10^6 ltr      LPS
  ------------------------------------------------------------------------------------------------------------------------------
  sub0                       4.41       0.00       0.00       0.31       2.84       0.00       2.84        0.00     0.86   0.643
  sub1                       4.41       0.00       0.00       0.49       2.67       0.00       2.67        0.02     4.39   0.606
  sub2                       4.41       0.00       0.00       1.63       1.88       0.00       1.88        0.02     3.87   0.425
  sub3                       4.41       0.00       0.00       1.63       1.84       0.00       1.84        0.04     7.93   0.418
  sub4                       4.41       0.00       0.00       0.49       2.55       0.00       2.55        0.05     8.86   0.577
  sub5                       4.41       0.00       0.00       0.31       2.79       0.00       2.79        0.03     7.80   0.633
  sub7                       4.41       0.00       0.00       0.40       2.76       0.00       2.76        0.01     2.77   0.626
  sub8                       4.41       0.00       0.00       0.40       2.75       0.00       2.75        0.02     4.88   0.624
  sub9                       4.41       0.00       0.00       0.40       2.75       0.00       2.75        0.01     3.61   0.623
  sub10                      4.41       0.00       0.00       0.35       2.77       0.00       2.77        0.03     7.80   0.628
  sub11                      4.41       0.00       0.00       0.35       2.79       0.00       2.79        0.03     9.19   0.631
  sub12                      4.41       0.00       0.00       0.57       2.65       0.00       2.65        0.02     7.85   0.601
  sub14                      4.41       0.00       0.00       0.40       2.75       0.00       2.75        0.03     7.06   0.623
  sub15                      4.41       0.00       0.00       1.32       2.11       0.00       2.11        0.04     9.57   0.479
  sub16                      4.41       0.00       0.00       1.46       2.04       0.00       2.04        0.02     6.88   0.462
  sub17                      4.41       0.00       0.00       1.41       2.07       0.00       2.07        0.02     5.55   0.468
  sub22                      4.41       0.00       0.00       1.90       1.73       0.00       1.73        0.11    31.46   0.391
  sub23                      4.41       0.00       0.00       1.63       1.91       0.00       1.91        0.09    26.82   0.433
  sub60                      4.41       0.00       0.00       0.53       1.68       0.00       1.68        0.51    44.03   0.380
  sub61                      4.41       0.00       0.00       0.75       1.84       0.00       1.84        0.57    56.15   0.418
  sub62                      4.41       0.00       0.00       0.35       1.96       0.00       1.96        0.60    57.26   0.444
  sub63                      4.41       0.00       0.00       1.28       1.66       0.00       1.66        0.50    52.42   0.376
  sub64                      4.41       0.00       0.00       0.66       1.60       0.00       1.60        0.49    41.73   0.363
  sub65                      4.41       0.00       0.00       0.57       1.62       0.00       1.62        0.50    42.26   0.366
  sub66                      4.41       0.00       0.00       1.28       1.41       0.00       1.41        0.43    38.56   0.319
  sub67                      4.41       0.00       0.00       0.35       2.21       0.00       2.21        0.68    73.71   0.501
  sub68                      4.41       0.00       0.00       0.62       1.97       0.00       1.97        0.61    62.09   0.447
  sub69                      4.41       0.00       0.00       0.66       2.19       0.00       2.19        0.51    61.78   0.495
  sub70                      4.41       2.23       0.00       2.26       2.53       0.00       2.53        0.58    46.38   0.381
  sub71                      4.41       0.00       0.00       0.35       1.86       0.00       1.86        0.44    39.73   0.421
  sub72                      4.41       0.00       0.00       0.31       1.24       0.00       1.24        0.25    17.90   0.281
  sub73                      4.41       2.46       0.00       2.34       2.47       0.00       2.47        0.58    39.55   0.360
  sub74                      4.41       0.00       0.00       3.31       0.66       0.00       0.66        0.27    34.51   0.150
  
  
  ******************
  Node Depth Summary
  ******************
  
  ---------------------------------------------------------------------------------
                                 Average  Maximum  Maximum  Time of Max    Reported
                                   Depth    Depth      HGL   Occurrence   Max Depth
  Node                 Type       Meters   Meters   Meters  days hr:min      Meters
  ---------------------------------------------------------------------------------
  WS02001211           JUNCTION     0.58     0.69     5.53     0  01:46        0.69
  WS02001212           JUNCTION     0.32     0.40     5.46     0  01:12        0.40
  WS02001213           JUNCTION     0.53     0.60     5.36     0  02:36        0.60
  WS02003069           JUNCTION     0.35     0.42     5.01     0  02:53        0.42
  WS02003072           JUNCTION     0.42     0.49     4.86     0  02:53        0.49
  WS02003073           JUNCTION     0.25     0.29     4.36     0  02:54        0.29
  WS02003060           JUNCTION     0.32     0.38     5.31     0  02:52        0.38
  WS02003066           JUNCTION     0.19     0.26     5.82     0  03:12        0.26
  WS02003059           JUNCTION     0.59     0.66     5.35     0  02:37        0.66
  WS02003067           JUNCTION     0.49     0.64     5.96     0  03:12        0.64
  WS02004401           JUNCTION     0.57     0.74     6.74     0  03:08        0.74
  WS02004402           JUNCTION     0.60     0.77     6.73     0  03:08        0.77
  WS02004403           JUNCTION     0.62     0.79     6.72     0  03:08        0.79
  WS02004404           JUNCTION     0.70     0.87     6.72     0  03:08        0.87
  WS02004406           JUNCTION     0.71     0.87     6.70     0  03:08        0.87
  WS02004409           JUNCTION     0.38     0.56     6.33     0  03:11        0.56
  WS02004410           JUNCTION     0.41     0.58     6.30     0  03:11        0.58
  WS02004411           JUNCTION     0.42     0.60     6.28     0  03:11        0.60
  WS02004412           JUNCTION     0.44     0.61     6.25     0  03:12        0.61
  WS02004413           JUNCTION     0.60     0.77     6.24     0  03:12        0.77
  WS02004405           JUNCTION     0.70     0.86     6.71     0  03:08        0.86
  WS02006109           JUNCTION     0.63     0.82     7.44     0  03:04        0.82
  WS02006110           JUNCTION     0.64     0.81     7.39     0  03:04        0.81
  WS02006111           JUNCTION     0.18     0.25     6.95     0  03:05        0.24
  WS02006112           JUNCTION     0.72     0.92     6.80     0  03:07        0.92
  WS02006113           JUNCTION     0.27     0.38     7.28     0  03:04        0.38
  WS02006115           JUNCTION     0.45     0.63     6.77     0  03:08        0.63
  WS02006116           JUNCTION     0.54     0.71     6.75     0  03:08        0.71
  WS02006230           JUNCTION     0.56     0.80     7.55     0  03:04        0.80
  WS02006231           JUNCTION     0.36     0.52     7.65     0  03:06        0.52
  WS02006232           JUNCTION     0.48     0.66     7.70     0  03:07        0.66
  WS02006234           JUNCTION     0.39     0.58     7.74     0  03:07        0.58
  WS02006235           JUNCTION     0.42     0.61     7.78     0  03:07        0.61
  WS02006238           JUNCTION     0.44     0.64     7.78     0  03:07        0.64
  WS02006240           JUNCTION     0.31     0.53     7.82     0  03:08        0.53
  WS02006242           JUNCTION     0.35     0.58     7.85     0  03:08        0.58
  WS02006243           JUNCTION     0.22     0.45     7.87     0  03:08        0.45
  WS02006245           JUNCTION     0.19     0.43     7.91     0  03:07        0.43
  WS02006247           JUNCTION     0.20     0.45     7.95     0  03:07        0.45
  WS02006248           JUNCTION     0.16     0.39     7.97     0  03:07        0.39
  WS02006249           JUNCTION     0.19     0.42     8.02     0  03:05        0.42
  WS02006239           JUNCTION     0.38     0.59     7.80     0  03:08        0.59
  WS02006251           JUNCTION     0.17     0.41     8.08     0  02:44        0.41
  WS02006252           JUNCTION     0.16     0.35     8.59     0  02:38        0.35
  WS02006253           JUNCTION     0.20     0.44     8.08     0  02:43        0.44
  WS02006256           JUNCTION     0.96     2.35     9.28     0  00:00        1.19
  WS02004138           JUNCTION     0.13     0.17     7.42     0  00:00        0.17
  WS02004407           JUNCTION     0.18     0.25     6.57     0  03:09        0.25
  WS02006228           JUNCTION     0.61     0.82     7.47     0  03:04        0.82
  WS02006229           JUNCTION     0.58     0.80     7.50     0  03:04        0.80
  WS02006280           JUNCTION     0.05     0.11     8.38     0  02:24        0.11
  WS02006284           JUNCTION     0.34     0.44     8.84     0  02:24        0.44
  WS02006287           JUNCTION     0.08     0.17     9.12     0  02:24        0.17
  WSF200               JUNCTION     0.17     0.25     5.48     0  03:12        0.25
  HS02004901           JUNCTION     0.11     0.19    10.01     0  02:22        0.19
  HS02004881           JUNCTION     0.01     0.02     9.05     0  02:23        0.02
  HS02004876           JUNCTION     0.04     0.09     9.12     0  02:23        0.09
  HS02004870           JUNCTION     0.01     0.03     9.32     0  02:24        0.03
  HS02004862           JUNCTION     0.01     0.03     9.42     0  02:25        0.03
  HS02004856           JUNCTION     0.07     0.09     9.52     0  02:24        0.09
  HS02004852           JUNCTION     0.01     0.02     9.53     0  02:25        0.02
  HS02004848           JUNCTION     0.01     0.02     9.62     0  02:22        0.02
  HS02004842           JUNCTION     0.32     0.35     9.62     0  02:23        0.35
  HS02004837           JUNCTION     0.03     0.04     9.62     0  02:22        0.04
  HS02004830           JUNCTION     0.04     0.05     9.52     0  02:23        0.05
  HS02004824           JUNCTION     0.02     0.03     9.43     0  02:27        0.03
  HS02004817           JUNCTION     0.42     0.49     9.34     0  02:25        0.49
  HS02004807           JUNCTION     0.11     0.17     9.34     0  02:25        0.17
  HS02004802           JUNCTION     0.15     0.20     9.33     0  02:25        0.20
  HS02004799           JUNCTION     0.10     0.20     9.41     0  02:22        0.20
  HS02004792           JUNCTION     0.02     0.07     9.59     0  02:22        0.07
  HS02004788           JUNCTION     0.02     0.05     9.95     0  02:23        0.05
  HS02004785           JUNCTION     0.04     0.10    10.00     0  02:23        0.10
  HS02004777           JUNCTION     0.13     0.21    10.01     0  02:22        0.21
  HS02004770           JUNCTION     0.10     0.18    10.01     0  02:22        0.18
  HS02004480           JUNCTION     0.06     0.15     9.39     0  02:23        0.15
  HS02004479           JUNCTION     0.10     0.19     9.39     0  02:23        0.19
  HS02004478           JUNCTION     0.05     0.10     9.32     0  02:24        0.10
  YS02001745           JUNCTION     0.07     0.18     7.70     0  07:49        0.18
  YS02001748           JUNCTION     0.20     0.61     7.69     0  07:49        0.61
  YS02001751           JUNCTION     0.36     0.81     7.69     0  07:49        0.81
  YS02001754           JUNCTION     0.60     1.08     7.69     0  07:49        1.08
  YS02001762           JUNCTION     0.79     1.28     7.68     0  07:49        1.28
  YS02001765           JUNCTION     0.74     1.23     7.68     0  07:49        1.23
  YS02001767           JUNCTION     0.71     1.19     7.68     0  07:49        1.19
  YS02001770           JUNCTION     0.71     1.19     7.68     0  07:50        1.19
  YS02001774           JUNCTION     0.77     1.26     7.69     0  07:50        1.26
  YS02001779           JUNCTION     0.53     1.00     7.69     0  07:50        1.00
  YS02001882           JUNCTION     0.25     0.35     7.06     0  03:01        0.35
  YS02001884           JUNCTION     0.34     0.45     7.06     0  03:01        0.45
  YS02001759           JUNCTION     0.82     1.32     7.69     0  07:49        1.32
  YS02001887           JUNCTION     0.41     0.53     7.06     0  03:01        0.53
  YS02001890           JUNCTION     0.44     0.56     7.06     0  03:01        0.56
  YS02001898           JUNCTION     0.22     0.31     7.05     0  03:01        0.31
  YS02001901           JUNCTION     0.33     0.44     7.05     0  03:02        0.44
  YS02001904           JUNCTION     0.31     0.41     7.04     0  03:02        0.41
  YS02001907           JUNCTION     0.63     0.76     7.05     0  03:01        0.76
  YS02001910           JUNCTION     0.43     0.54     7.05     0  03:01        0.54
  YS02001915           JUNCTION     0.23     0.33     7.04     0  03:01        0.33
  YS02001918           JUNCTION     0.06     0.08     7.14     0  03:04        0.08
  YS02001619           JUNCTION     0.33     0.76     7.68     0  07:49        0.75
  YS02001629           JUNCTION     0.66     1.14     7.69     0  07:48        1.14
  YS02001641           JUNCTION     0.76     1.25     7.68     0  07:49        1.25
  YS02001644           JUNCTION     0.76     1.25     7.68     0  07:49        1.25
  YS02001652           JUNCTION     0.61     1.09     7.69     0  07:49        1.09
  YS02001655           JUNCTION     0.39     0.84     7.69     0  07:49        0.84
  YS02001920           JUNCTION     0.15     0.17     7.18     0  03:03        0.17
  YS02001923           JUNCTION     0.05     0.06     7.32     0  03:02        0.06
  YS02001926           JUNCTION     0.12     0.14     7.59     0  03:02        0.14
  YS02001929           JUNCTION     0.05     0.07     7.76     0  03:01        0.07
  YS02001658           JUNCTION     0.16     0.55     7.69     0  07:49        0.54
  YS02001661           JUNCTION     0.14     0.28     7.69     0  07:49        0.28
  YS02001664           JUNCTION     0.06     0.09     8.01     0  02:57        0.09
  YS02001622           JUNCTION     0.35     0.78     7.68     0  07:49        0.78
  YS02001633           JUNCTION     0.74     1.23     7.69     0  07:50        1.23
  YS02001649           JUNCTION     0.80     1.30     7.69     0  07:49        1.29
  YS02001757           JUNCTION     0.92     1.42     7.69     0  07:49        1.42
  YS02001895           JUNCTION     0.21     0.31     7.06     0  03:01        0.31
  YS02001625           JUNCTION     0.61     1.08     7.68     0  07:50        1.08
  YS02163301           JUNCTION     0.68     1.17     7.69     0  07:50        1.17
  YS02163601           JUNCTION     0.80     1.29     7.68     0  07:50        1.29
  YS02164001           JUNCTION     0.74     1.23     7.68     0  07:50        1.23
  YS02001647           JUNCTION     0.60     1.07     7.68     0  07:49        1.07
  YSB1154              JUNCTION     0.23     0.34     9.40     0  02:23        0.34
  YSB6556              JUNCTION     0.13     0.23     9.39     0  02:23        0.23
  YSB1174              JUNCTION     0.19     0.29     9.39     0  02:23        0.29
  YSB1171              JUNCTION     0.38     0.49     9.39     0  02:23        0.49
  YS02006553           JUNCTION     0.64     0.76     7.04     0  03:01        0.76
  YS02006561           JUNCTION     0.12     0.17     6.83     0  03:02        0.17
  YS02006556           JUNCTION     0.61     0.73     7.04     0  03:02        0.73
  YS02006558           JUNCTION     0.66     0.78     7.04     0  03:02        0.78
  YS02001783           JUNCTION     0.20     0.30     6.44     0  03:02        0.30
  YS02001784           JUNCTION     0.24     0.33     6.40     0  03:01        0.33
  YS02001786           JUNCTION     0.20     0.28     6.31     0  03:02        0.28
  YS02001788           JUNCTION     0.14     0.21     6.18     0  03:02        0.21
  YS02001790           JUNCTION     0.18     0.25     5.90     0  03:03        0.25
  YS02001791           JUNCTION     0.12     0.17     5.64     0  03:03        0.17
  YS02001793           JUNCTION     0.07     0.10     4.94     0  03:24        0.10
  WS02004139           JUNCTION     0.52     0.63     5.54     0  01:10        0.63
  WSC                  OUTFALL      0.24     0.29     0.96     0  02:54        0.29
  3                    OUTFALL      0.05     0.23     6.23     0  00:00        0.19
  4                    OUTFALL      0.00     0.00     7.00     0  00:00        0.00
  5                    OUTFALL      0.00     0.00     5.00     0  00:00        0.00
  JK-storage           STORAGE      0.39     3.00     3.80     0  00:00        2.94
  CC-storage           STORAGE      0.20     0.68     7.68     0  07:50        0.68
  XR-storage           STORAGE      6.28     7.72     5.72     0  03:35        7.72
  
  
  *******************
  Node Inflow Summary
  *******************
  
  -------------------------------------------------------------------------------------------------
                                  Maximum  Maximum                  Lateral       Total        Flow
                                  Lateral    Total  Time of Max      Inflow      Inflow     Balance
                                   Inflow   Inflow   Occurrence      Volume      Volume       Error
  Node                 Type           LPS      LPS  days hr:min    10^6 ltr    10^6 ltr     Percent
  -------------------------------------------------------------------------------------------------
  WS02001211           JUNCTION      7.35   292.67     0  00:56       0.207        5.57       0.522
  WS02001212           JUNCTION      0.00   292.67     0  01:12           0        5.54       0.295
  WS02001213           JUNCTION      0.00   292.67     0  01:12           0        5.52       0.335
  WS02003069           JUNCTION      0.32   538.25     0  02:52     0.00902          10       0.190
  WS02003072           JUNCTION      0.00   538.13     0  02:53           0          10       0.256
  WS02003073           JUNCTION      1.82   539.84     0  02:53      0.0514          10       0.269
  WS02003060           JUNCTION     16.53   538.01     0  02:52       0.466          10       0.185
  WS02003066           JUNCTION      0.00   394.68     0  03:12           0         4.1       0.065
  WS02003059           JUNCTION      0.00   292.67     0  01:16           0        5.51       0.539
  WS02003067           JUNCTION      0.00   394.68     0  03:12           0         4.1       0.154
  WS02004401           JUNCTION      0.00   396.19     0  03:06           0        4.26       0.348
  WS02004402           JUNCTION      0.00   395.85     0  03:06           0        4.25       0.342
  WS02004403           JUNCTION      0.00   395.73     0  03:08           0        4.23       0.322
  WS02004404           JUNCTION      0.16   395.80     0  03:08     0.00457        4.22       0.254
  WS02004406           JUNCTION      0.00   395.82     0  03:08           0         4.2       0.625
  WS02004409           JUNCTION      0.00   395.76     0  03:09           0        4.17       0.199
  WS02004410           JUNCTION      0.00   395.36     0  03:09           0        4.16       0.245
  WS02004411           JUNCTION      0.00   395.04     0  03:10           0        4.15       0.268
  WS02004412           JUNCTION      0.00   394.84     0  03:11           0        4.14       0.314
  WS02004413           JUNCTION      0.00   394.72     0  03:11           0        4.12       0.500
  WS02004405           JUNCTION      0.04   395.82     0  03:08     0.00107        4.21       0.387
  WS02006109           JUNCTION      1.23   395.95     0  03:04      0.0347        4.32       0.388
  WS02006110           JUNCTION      0.00   395.93     0  03:04           0        4.31       0.311
  WS02006111           JUNCTION      0.00   404.86     0  03:04           0        4.29       0.051
  WS02006112           JUNCTION      5.55   398.92     0  03:05      0.0177         4.3       0.481
  WS02006113           JUNCTION      0.00   395.98     0  03:04           0        4.29       0.117
  WS02006115           JUNCTION      0.00   397.23     0  03:05           0        4.28       0.282
  WS02006116           JUNCTION      0.00   396.58     0  03:06           0        4.27       0.288
  WS02006230           JUNCTION     10.28   326.80     0  03:13        0.29        3.64       0.264
  WS02006231           JUNCTION      0.00   316.09     0  03:13           0        3.36       0.137
  WS02006232           JUNCTION      0.00   315.87     0  03:13           0        3.37       0.317
  WS02006234           JUNCTION      0.00   315.63     0  03:12           0        3.37       0.064
  WS02006235           JUNCTION      0.00   315.50     0  03:12           0        3.41       0.211
  WS02006238           JUNCTION      0.00   217.87     0  02:48           0        1.12       0.319
  WS02006240           JUNCTION      0.00   217.74     0  02:46           0         1.1       0.293
  WS02006242           JUNCTION      0.00   217.93     0  02:46           0         1.1       0.339
  WS02006243           JUNCTION      0.00   218.10     0  02:44           0        1.09      -0.199
  WS02006245           JUNCTION      0.00   218.20     0  02:45           0        1.09       0.120
  WS02006247           JUNCTION      0.00   218.34     0  02:43           0        1.09       0.014
  WS02006248           JUNCTION      0.00   218.42     0  02:43           0        1.09      -0.063
  WS02006249           JUNCTION      0.00   218.52     0  02:43           0        1.09       0.125
  WS02006239           JUNCTION      0.00   217.65     0  02:47           0        1.11       0.384
  WS02006251           JUNCTION      0.08   220.11     0  02:39     0.00217        1.09       0.001
  WS02006252           JUNCTION      0.00   200.00     0  02:38           0       0.992       0.007
  WS02006253           JUNCTION      0.86    23.83     0  02:23      0.0023      0.0985      -0.078
  WS02006256           JUNCTION      0.00   600.00     0  00:00           0        3.36       0.052
  WS02004138           JUNCTION      0.00   285.00     0  00:00           0        5.39       0.080
  WS02004407           JUNCTION      0.00   395.78     0  03:09           0        4.17       0.094
  WS02006228           JUNCTION      0.00   394.73     0  03:04           0         4.3       0.253
  WS02006229           JUNCTION      0.00   394.77     0  03:03           0        4.31       0.181
  WS02006280           JUNCTION      0.00   128.46     0  02:24           0       0.674       0.011
  WS02006284           JUNCTION      0.10   128.46     0  02:24      0.0027       0.676       0.168
  WS02006287           JUNCTION      0.00   128.38     0  02:24           0       0.674       0.103
  WSF200               JUNCTION      0.00   394.68     0  03:12           0        4.09       0.048
  HS02004901           JUNCTION      6.88     6.88     0  02:14      0.0213      0.0215       8.912
  HS02004881           JUNCTION      2.77    23.18     0  02:23      0.0093      0.0964       0.202
  HS02004876           JUNCTION      4.39    20.64     0  02:23      0.0178      0.0877       0.597
  HS02004870           JUNCTION      4.88    16.35     0  02:23      0.0176        0.07       0.152
  HS02004862           JUNCTION      4.07    11.80     0  02:24      0.0231      0.0526       0.319
  HS02004856           JUNCTION      3.61     7.77     0  02:23      0.0132      0.0309       4.864
  HS02004852           JUNCTION      0.00     4.39     0  02:23           0      0.0177       0.274
  HS02004848           JUNCTION      7.93     7.93     0  02:26      0.0415      0.0415       0.103
  HS02004842           JUNCTION      0.00     4.47     0  00:03           0      0.0368      54.662
  HS02004837           JUNCTION     14.15    17.50     0  02:22        0.21       0.233       0.350
  HS02004830           JUNCTION      0.15    17.64     0  02:22     0.00423       0.224       0.553
  HS02004824           JUNCTION      8.91    26.44     0  02:27      0.0545       0.277       0.195
  HS02004817           JUNCTION      0.60    27.03     0  02:27      0.0169       0.293       6.020
  HS02004807           JUNCTION      9.19    35.40     0  02:25      0.0324       0.309       1.385
  HS02004802           JUNCTION      0.00    35.48     0  02:26           0       0.305       1.352
  HS02004799           JUNCTION      7.06    79.19     0  02:21      0.0262       0.333       0.678
  HS02004792           JUNCTION     31.74    72.33     0  02:21       0.117       0.307       0.135
  HS02004788           JUNCTION     11.24    42.22     0  02:22      0.0834       0.191       0.203
  HS02004785           JUNCTION      0.15    31.37     0  02:22     0.00423        0.11       0.438
  HS02004777           JUNCTION      0.03    31.71     0  02:19    0.000846        0.11       4.932
  HS02004770           JUNCTION     26.82    32.75     0  02:17      0.0911       0.111       2.877
  HS02004480           JUNCTION      0.00    93.31     0  02:22           0       0.385       0.180
  HS02004479           JUNCTION      0.00    14.38     0  02:24           0      0.0645       1.142
  HS02004478           JUNCTION      0.00   128.39     0  02:24           0       0.674       0.097
  YS02001745           JUNCTION     44.03    44.03     0  03:01       0.508       0.509       0.410
  YS02001748           JUNCTION      0.04    65.69     0  05:12     0.00127       0.543       2.412
  YS02001751           JUNCTION      0.01   136.77     0  04:16     0.00031       0.579       3.535
  YS02001754           JUNCTION      0.26   286.53     0  04:09     0.00733        0.68       3.836
  YS02001762           JUNCTION      0.00    89.17     0  04:31           0       0.562       3.987
  YS02001765           JUNCTION      0.00   116.55     0  04:17           0       0.555       4.588
  YS02001767           JUNCTION      0.54   101.91     0  04:18      0.0151       0.571       6.743
  YS02001770           JUNCTION     57.41    61.14     0  05:45       0.607       0.647       5.246
  YS02001774           JUNCTION      0.00    43.73     0  05:44           0       0.123      26.218
  YS02001779           JUNCTION      0.01    42.99     0  05:44    0.000141      0.0588      34.968
  YS02001882           JUNCTION      0.00     2.54     0  02:13           0     0.00369      66.975
  YS02001884           JUNCTION      0.00     7.47     0  02:09           0       0.015      42.077
  YS02001759           JUNCTION     56.19   140.08     0  03:46       0.569        1.09       2.187
  YS02001887           JUNCTION     74.16    74.16     0  02:54       0.694       0.701       0.965
  YS02001890           JUNCTION      0.00    73.80     0  02:56           0       0.681       1.092
  YS02001898           JUNCTION      0.00    73.54     0  02:59           0       0.671       0.282
  YS02001901           JUNCTION      0.00    73.48     0  03:00           0       0.671       0.760
  YS02001904           JUNCTION      0.00    73.42     0  03:02           0        0.67       0.709
  YS02001907           JUNCTION      0.00   133.66     0  03:02           0        1.43       1.518
  YS02001910           JUNCTION      0.00    60.35     0  03:01           0       0.766       1.267
  YS02001915           JUNCTION     39.75    60.28     0  03:01       0.439        0.77       0.525
  YS02001918           JUNCTION      0.00    20.77     0  03:03           0       0.332       0.264
  YS02001619           JUNCTION     38.56    38.56     0  03:01       0.432       0.433       2.324
  YS02001629           JUNCTION      0.00    60.39     0  05:03           0       0.384       6.824
  YS02001641           JUNCTION      0.00    85.52     0  03:11           0       0.759       2.837
  YS02001644           JUNCTION     41.77   122.09     0  03:10       0.487        1.22       2.123
  YS02001652           JUNCTION      0.00   122.44     0  04:18           0       0.529       4.630
  YS02001655           JUNCTION      0.15    76.42     0  05:25     0.00434       0.538       4.157
  YS02001920           JUNCTION      2.87    20.79     0  03:02      0.0809       0.333       0.528
  YS02001923           JUNCTION      0.04    17.92     0  03:02     0.00106       0.253       0.093
  YS02001926           JUNCTION      0.05    17.94     0  03:01     0.00147       0.253       0.676
  YS02001929           JUNCTION     17.90    17.90     0  03:01       0.252       0.252       0.089
  YS02001658           JUNCTION      0.00    62.88     0  05:27           0       0.544       2.424
  YS02001661           JUNCTION      0.00    52.42     0  02:57           0       0.502       0.866
  YS02001664           JUNCTION     52.42    52.42     0  02:57       0.502       0.502       0.029
  YS02001622           JUNCTION      0.00    43.16     0  05:58           0       0.425       6.661
  YS02001633           JUNCTION     42.46    84.69     0  04:54       0.502       0.832       4.048
  YS02001649           JUNCTION      0.00   201.77     0  04:19           0        1.66       2.318
  YS02001757           JUNCTION      0.00   469.53     0  03:52           0        3.17       2.734
  YS02001895           JUNCTION      0.00    73.61     0  02:58           0       0.674       0.482
  YS02001625           JUNCTION      0.00    65.71     0  05:58           0        0.41      10.401
  YS02163301           JUNCTION      0.00    91.91     0  05:10           0       0.369       7.047
  YS02163601           JUNCTION      0.11    85.62     0  03:07      0.0031       0.783       4.039
  YS02164001           JUNCTION      0.00    84.93     0  03:13           0       0.762       2.752
  YS02001647           JUNCTION      0.00   127.76     0  03:06           0        1.18       2.473
  YSB1154              JUNCTION      7.80     7.80     0  02:20      0.0316      0.0331       4.564
  YSB6556              JUNCTION      0.00     7.74     0  02:22           0      0.0341       3.781
  YSB1174              JUNCTION      7.85     7.85     0  02:13      0.0231      0.0242       5.614
  YSB1171              JUNCTION      0.00    14.43     0  02:22           0      0.0639      10.974
  YS02006553           JUNCTION      0.00   133.82     0  03:03           0        1.41       0.989
  YS02006561           JUNCTION      0.00   195.84     0  03:02           0           2       0.027
  YS02006556           JUNCTION      0.00   133.99     0  03:04           0        1.42       0.709
  YS02006558           JUNCTION     62.97   195.85     0  03:01       0.632        2.02       0.215
  YS02001783           JUNCTION      0.00   195.83     0  03:02           0           2       0.063
  YS02001784           JUNCTION      1.06   196.89     0  03:02      0.0299        2.03       0.106
  YS02001786           JUNCTION      0.06   196.93     0  03:02     0.00159        2.02       0.103
  YS02001788           JUNCTION      0.07   197.00     0  03:02       0.002        2.02       0.059
  YS02001790           JUNCTION      0.15   197.16     0  03:02     0.00437        2.03       0.075
  YS02001791           JUNCTION      0.00   197.15     0  03:03           0        2.03       0.036
  YS02001793           JUNCTION      0.00   197.15     0  03:03           0        2.03       0.016
  WS02004139           JUNCTION      0.32   290.33     0  00:00     0.00905        5.39       0.607
  WSC                  OUTFALL       0.00   539.65     0  02:54           0          10       0.000
  3                    OUTFALL       0.00   597.65     0  00:00           0        1.05       0.000
  4                    OUTFALL       0.00     0.00     0  00:00           0           0       0.000 ltr
  5                    OUTFALL       0.00     0.00     0  00:00           0           0       0.000 ltr
  JK-storage           STORAGE       0.00   197.15     0  03:03           0        2.18     -35.148
  CC-storage           STORAGE       0.00   322.43     0  03:07           0        2.94       1.439
  XR-storage           STORAGE     272.15   272.15     0  03:01        6.49        7.09       0.000
  
  
  **********************
  Node Surcharge Summary
  **********************
  
  Surcharging occurs when water rises above the top of the highest conduit.
  ---------------------------------------------------------------------
                                               Max. Height   Min. Depth
                                   Hours       Above Crown    Below Rim
  Node                 Type      Surcharged         Meters       Meters
  ---------------------------------------------------------------------
  WS02006256           JUNCTION        0.01          1.050        0.000
  YS02001754           JUNCTION        0.30          0.030        1.120
  YS02001762           JUNCTION        2.55          0.285        0.865
  YS02001765           JUNCTION        2.17          0.234        0.866
  YS02001767           JUNCTION        1.91          0.194        0.836
  YS02001770           JUNCTION        1.61          0.160        0.760
  YS02001774           JUNCTION        2.39          0.264        0.786
  YS02001779           JUNCTION        0.01          0.000        0.680
  YS02001759           JUNCTION        2.79          0.321        0.889
  YS02001641           JUNCTION        2.28          0.246        0.854
  YS02001644           JUNCTION        2.31          0.252        0.668
  YS02001652           JUNCTION        0.66          0.059        1.071
  YS02001633           JUNCTION        2.01          0.211        0.849
  YS02001649           JUNCTION        2.62          0.295        0.755
  YS02001757           JUNCTION        3.40          0.425        0.785
  YS02001625           JUNCTION        0.89          0.080        0.700
  YS02163301           JUNCTION        1.67          0.169        0.861
  YS02163601           JUNCTION        2.55          0.286        0.794
  YS02164001           JUNCTION        2.13          0.226        0.874
  YS02001647           JUNCTION        0.82          0.075        0.825
  
  
  *********************
  Node Flooding Summary
  *********************
  
  Flooding refers to all water that overflows a node, whether it ponds or not.
  --------------------------------------------------------------------------
                                                             Total   Maximum
                                 Maximum   Time of Max       Flood    Ponded
                        Hours       Rate    Occurrence      Volume     Depth
  Node                 Flooded       LPS   days hr:min    10^6 ltr    Meters
  --------------------------------------------------------------------------
  WS02006256              0.01    406.11      0  00:00       0.001     0.000
  XR-storage              4.24    161.24      0  03:35       0.773     0.000
  
  
  **********************
  Storage Volume Summary
  **********************
  
  --------------------------------------------------------------------------------------------------
                         Average     Avg  Evap Exfil       Maximum     Max    Time of Max    Maximum
                          Volume    Pcnt  Pcnt  Pcnt        Volume    Pcnt     Occurrence    Outflow
  Storage Unit           1000 m3    Full  Loss  Loss       1000 m3    Full    days hr:min        LPS
  --------------------------------------------------------------------------------------------------
  JK-storage               0.019       7     0     0         0.151      52       0  00:00     600.00
  CC-storage               0.556       4     0     0         1.902      12       0  07:50     200.00
  XR-storage               0.754      81     0     0         0.926     100       0  03:35     285.00
  
  
  ***********************
  Outfall Loading Summary
  ***********************
  
  -----------------------------------------------------------
                         Flow       Avg       Max       Total
                         Freq      Flow      Flow      Volume
  Outfall Node           Pcnt       LPS       LPS    10^6 ltr
  -----------------------------------------------------------
  WSC                   99.99    397.94    539.65      10.002
  3                     73.61     98.06    597.65       1.053
  4                      0.00      0.00      0.00       0.000
  5                      0.00      0.00      0.00       0.000
  -----------------------------------------------------------
  System                43.40    496.00    710.51      11.055
  
  
  ********************
  Link Flow Summary
  ********************
  
  -----------------------------------------------------------------------------
                                 Maximum  Time of Max   Maximum    Max/    Max/
                                  |Flow|   Occurrence   |Veloc|    Full    Full
  Link                 Type          LPS  days hr:min     m/sec    Flow   Depth
  -----------------------------------------------------------------------------
  WS02003066WSF200     CONDUIT    394.68     0  03:12      2.59    0.07    0.19
  WS02006287WS02006284 CONDUIT    128.37     0  02:24      1.37    0.06    0.18
  WS02006284WS02006280 CONDUIT    128.46     0  02:24      1.62    0.05    0.16
  WS02006280WS02006229 CONDUIT    128.47     0  02:24      2.60    0.03    0.11
  WS02006229WS02006228 CONDUIT    394.73     0  03:04      0.85    1.31    1.00
  WS02006256WS02006235 CONDUIT    177.52     0  00:01      2.73    1.88    1.00
  WS02006253WS02006251 CONDUIT     23.81     0  02:24      0.40    0.07    0.60
  WS02006252WS02006251 CONDUIT    200.15     0  02:38      1.97    0.73    0.76
  WS02006251WS02006249 CONDUIT    218.52     0  02:43      0.93    0.63    0.59
  WS02006249WS02006248 CONDUIT    218.42     0  02:43      1.01    1.20    0.56
  WS02006248WS02006247 CONDUIT    218.34     0  02:43      0.98    0.48    0.59
  WS02006247WS02006245 CONDUIT    218.20     0  02:45      0.94    1.73    0.62
  WS02006245WS02006243 CONDUIT    218.10     0  02:44      0.99    0.65    0.62
  WS02006243WS02006242 CONDUIT    217.93     0  02:46      0.86    0.47    0.72
  WS02006242WS02006240 CONDUIT    217.74     0  02:46      0.80    0.86    0.78
  WS02006240WS02006239 CONDUIT    217.65     0  02:47      0.87    0.68    0.77
  WS02006239WS02006238 CONDUIT    217.87     0  02:48      0.77    0.70    0.86
  WS02006238WS02006235 CONDUIT    218.59     0  02:48      1.32    0.49    0.89
  WS02006235WS02006234 CONDUIT    315.63     0  03:12      0.94    3.33    0.83
  WS02006234WS02006232 CONDUIT    315.87     0  03:13      1.17    0.64    0.89
  WS02006232WS02006231 CONDUIT    316.09     0  03:13      0.93    0.66    0.84
  WS02006231WS02006230 CONDUIT    316.52     0  03:13      1.28    4.80    0.68
  WS02006230WS02006229 CONDUIT    327.59     0  03:12      0.86    7.29    1.00
  WS02006228WS02006109 CONDUIT    394.72     0  03:04      0.79    1.72    1.00
  WS02006116WS02004401 CONDUIT    396.19     0  03:06      0.65    0.55    0.73
  WS02006115WS02006116 CONDUIT    396.58     0  03:06      0.75    0.51    0.64
  WS02006113WS02006111 CONDUIT    404.86     0  03:04      2.21    0.49    0.39
  WS02006112WS02006115 CONDUIT    397.23     0  03:05      0.61    0.23    0.77
  WS02006111WS02006112 CONDUIT    397.38     0  03:05      1.15    0.19    0.65
  WS02006110WS02006113 CONDUIT    395.98     0  03:04      0.99    0.36    0.74
  WS02006109WS02006110 CONDUIT    395.93     0  03:04      0.81    0.76    0.94
  WS02004411WS02004412 CONDUIT    394.84     0  03:11      0.80    0.56    0.60
  WS02004401WS02004402 CONDUIT    395.85     0  03:06      0.62    0.48    0.76
  WS02004413WS02003067 CONDUIT    394.68     0  03:12      0.94    0.17    0.53
  WS02004412WS02004413 CONDUIT    394.72     0  03:11      0.68    0.26    0.69
  WS02004410WS02004411 CONDUIT    395.04     0  03:10      0.82    0.54    0.59
  WS02004409WS02004410 CONDUIT    395.36     0  03:09      0.85    0.51    0.57
  WS02004407WS02004409 CONDUIT    395.76     0  03:09      1.32    0.14    0.41
  WS02004406WS02004407 CONDUIT    395.78     0  03:09      0.87    0.18    0.56
  WS02004405WS02004406 CONDUIT    395.82     0  03:08      0.55    0.78    0.87
  WS02004404WS02004405 CONDUIT    395.78     0  03:08      0.55    3.88    0.87
  WS02004403WS02004404 CONDUIT    395.64     0  03:08      0.57    0.29    0.83
  WS02004402WS02004403 CONDUIT    395.73     0  03:08      0.60    0.57    0.78
  WS02004139WS02001211 CONDUIT    285.32     0  00:56      0.80    0.36    0.51
  WS02004138WS02004139 CONDUIT    290.01     0  00:00      3.34    0.06    0.37
  WS02003067WS02003066 CONDUIT    394.68     0  03:12      1.01    0.13    0.38
  WS02001213WS02003059 CONDUIT    292.67     0  01:16      0.80    0.48    0.62
  WS02001212WS02001213 CONDUIT    292.67     0  01:12      1.19    0.45    0.35
  WS02001211WS02001212 CONDUIT    292.67     0  01:12      0.67    0.22    0.54
  WS02003072WS02003073 CONDUIT    538.02     0  02:53      1.42    1.16    0.37
  WS02003069WS02003072 CONDUIT    538.13     0  02:53      1.36    0.26    0.38
  WS02003060WS02003069 CONDUIT    537.93     0  02:52      1.63    0.21    0.33
  WS02003059WS02003060 CONDUIT    292.67     0  01:14      0.82    0.19    0.52
  HS02004901HS02004770 CONDUIT      6.18     0  02:21      0.03    0.02    0.27
  HS02004876HS02004881 CONDUIT     20.66     0  02:24      0.40    0.22    0.07
  HS02004870HS02004876 CONDUIT     16.34     0  02:24      0.28    0.01    0.08
  HS02004842HS02004848 CONDUIT      3.77     0  02:36      0.02    0.00    0.26
  HS02004837HS02004842 CONDUIT      4.47     0  00:03      0.41    0.00    0.28
  HS02004830HS02004837 CONDUIT     17.49     0  02:22      0.39    0.02    0.06
  HS02004824HS02004830 CONDUIT     17.64     0  02:24      0.43    0.02    0.06
  HS02004817HS02004824 CONDUIT     26.43     0  02:27      0.17    0.01    0.37
  HS02004770HS02004777 CONDUIT     31.68     0  02:19      0.16    0.06    0.28
  HS02004799HS02004480 CONDUIT     79.05     0  02:22      0.46    0.10    0.25
  HS02004792HS02004799 CONDUIT     72.29     0  02:22      0.53    0.04    0.19
  HS02004788HS02004792 CONDUIT     42.19     0  02:23      0.69    0.03    0.09
  HS02004785HS02004788 CONDUIT     31.26     0  02:23      0.41    0.24    0.11
  HS02004777HS02004785 CONDUIT     31.22     0  02:22      0.20    0.04    0.22
  HS02004480HS02004478 CONDUIT     93.25     0  02:23      0.78    0.39    0.17
  HS02004479HS02004480 CONDUIT     14.50     0  02:25      0.16    0.01    0.24
  HS02004862HS02004870 CONDUIT     11.77     0  02:25      0.38    0.01    0.04
  HS02004848HS02004852 CONDUIT      4.39     0  02:23      0.24    0.00    0.03
  HS02004856HS02004862 CONDUIT      7.75     0  02:24      0.27    0.01    0.04
  HS02004852HS02004856 CONDUIT      4.36     0  02:25      0.08    0.00    0.08
  HS02004802HS02004478 CONDUIT     35.64     0  02:27      0.24    0.03    0.21
  HS02004478WS02006287 CONDUIT    128.38     0  02:24      1.06    0.04    0.13
  HS02004817HS02004807 CONDUIT     27.29     0  02:29      0.08    0.02    0.47
  HS02004807HS02004802 CONDUIT     35.48     0  02:26      0.20    0.07    0.26
  YS02001759YS02001757 CONDUIT    124.35     0  03:00      0.17    0.09    1.00
  YS02001762YS02001759 CONDUIT    106.31     0  04:19      0.17    0.12    1.00
  YS02001765YS02001762 CONDUIT     89.17     0  04:31      0.22    0.08    1.00
  YS02001770YS02001767 CONDUIT     65.17     0  02:59      0.32    0.26    1.00
  YS02001774YS02001770 CONDUIT     43.73     0  05:44      0.14    0.03    1.00
  YS02001779YS02001774 CONDUIT     42.99     0  05:44      0.07    0.02    1.00
  YS02001649YS02001757 CONDUIT    190.77     0  03:07      0.26    0.12    1.00
  YS02001767YS02001765 CONDUIT    110.79     0  04:18      0.26    0.14    1.00
  YS02006561YS02001783 CONDUIT    195.83     0  03:02      1.58    0.10    0.30
  YS02001783YS02001784 CONDUIT    195.83     0  03:02      1.06    0.27    0.40
  YS02001784YS02001785 CONDUIT    196.87     0  03:02      1.10    0.46    0.38
  YS02001788YS02001790 CONDUIT    197.01     0  03:02      1.66    0.15    0.29
  YS02001790YS02001791 CONDUIT    197.15     0  03:03      1.87    0.21    0.26
  YS02001791YS02001793 CONDUIT    197.15     0  03:03      3.80    0.08    0.16
  YS02001910YS02001907 CONDUIT     60.36     0  03:04      0.49    0.03    0.64
  YS02001786YS02001788 CONDUIT    196.93     0  03:02      1.51    0.38    0.31
  YS02001915YS02001910 CONDUIT     60.35     0  03:01      0.44    0.03    0.43
  YS02001918YS02001915 CONDUIT     20.75     0  03:04      0.44    0.01    0.20
  YS02001923YS02001920 CONDUIT     17.92     0  03:02      0.35    0.01    0.12
  YS02001926YS02001923 CONDUIT     17.88     0  03:02      0.40    0.03    0.11
  YS02001929YS02001926 CONDUIT     17.89     0  03:01      0.42    0.01    0.10
  YS02001920YS02001918 CONDUIT     20.77     0  03:03      0.37    0.02    0.12
  YS02001629YS02163301 CONDUIT     66.34     0  05:06      0.09    0.08    1.00
  YS02001619YS02001622 CONDUIT     43.16     0  05:58      0.57    0.06    0.77
  YS02001622YS02001625 CONDUIT     40.49     0  02:59      0.19    0.02    0.89
  YS02001625YS02001629 CONDUIT     53.31     0  05:58      0.19    0.03    0.88
  YS02163301YS02001633 CONDUIT     61.44     0  04:54      0.09    0.06    1.00
  YS02163601YS02164001 CONDUIT     84.93     0  03:13      0.13    0.08    1.00
  YS02164001YS02001641 CONDUIT     85.52     0  03:11      0.13    0.12    1.00
  YS02001641YS02001644 CONDUIT     82.77     0  03:10      0.13    0.27    1.00
  YS02001647YS02001649 CONDUIT    129.65     0  03:10      0.21    0.07    1.00
  YS02006553YS02006556 CONDUIT    133.99     0  03:04      0.22    0.11    0.73
  YS02006556YS02006558 CONDUIT    134.13     0  03:04      0.21    0.11    0.75
  YSB6556YSB1171       CONDUIT      7.85     0  02:26      0.04    0.01    0.51
  YS02001907YS02006553 CONDUIT    133.82     0  03:03      0.18    0.16    0.83
  YS02006558YS02006561 CONDUIT    195.84     0  03:02      2.03    0.43    0.37
  YS02001633YS02163601 CONDUIT     85.51     0  03:07      0.13    0.09    1.00
  YS02001644YS02001647 CONDUIT    127.76     0  03:06      0.22    0.08    1.00
  YS02001745YS02001748 CONDUIT     44.01     0  03:01      1.25    0.02    0.35
  YS02001748YS02001751 CONDUIT     85.81     0  05:12      0.96    0.04    0.71
  YS02001751YS02001754 CONDUIT    140.22     0  04:08      0.88    0.07    0.91
  YS02001754YS02001757 CONDUIT    206.89     0  04:09      0.33    0.08    1.00
  YS02001882YS02001884 CONDUIT      2.54     0  02:13      0.06    0.00    0.37
  YS02001884YS02001887 CONDUIT      7.47     0  02:09      0.06    0.01    0.46
  YS02001890YS02001895 CONDUIT     73.61     0  02:58      0.23    0.03    0.43
  YS02001895YS02001898 CONDUIT     73.54     0  02:59      0.44    0.13    0.30
  YS02001898YS02001901 CONDUIT     73.48     0  03:00      0.27    0.05    0.37
  YS02001901YS02001904 CONDUIT     73.42     0  03:02      0.23    0.11    0.43
  YS02001904YS02001907 CONDUIT     73.61     0  03:02      0.15    0.03    0.59
  YS02001887YS02001890 CONDUIT     73.80     0  02:56      0.18    0.13    0.52
  YS02001652YS02001649 CONDUIT     97.40     0  04:19      0.29    0.05    1.00
  YS02001655YS02001652 CONDUIT     77.46     0  04:18      0.94    0.04    0.92
  YS02001658YS02001655 CONDUIT     74.25     0  05:25      1.11    0.03    0.69
  YS02001661YS02001658 CONDUIT     52.42     0  02:57      1.26    0.02    0.38
  YS02001664YS02001661 CONDUIT     52.42     0  02:57      0.88    0.02    0.16
  YSB1154YSB6556       CONDUIT      7.74     0  02:22      0.19    0.01    0.40
  YSB1174YSB1171       CONDUIT      7.20     0  02:15      0.04    0.01    0.52
  YSB1171HS02004479    CONDUIT     14.38     0  02:24      0.54    0.01    0.39
  HS02004881HS02006253 CONDUIT     23.18     0  02:23      1.36    0.00    0.08
  YS02001793JiankangQianchi CONDUIT    197.15     0  03:03     11.05    0.02    0.54
  YS02001757CaochengTiaoxuchi CONDUIT    322.43     0  03:07      0.81    0.14    0.84
  WSF200WS02003060     CONDUIT    394.68     0  03:12      1.71    0.09    0.26
  1                    CONDUIT    539.65     0  02:54      2.80    0.19    0.29
  2                    CONDUIT      0.00     0  00:00      0.00    0.00    0.00
  3                    CONDUIT    597.65     0  00:00     10.05    0.95    0.86
  4                    CONDUIT      0.00     0  00:00      0.00    0.00    0.00
  CC-Pump-1            PUMP       200.00     0  02:38              1.00
  CC-Pump-2            PUMP         0.00     0  00:00              0.00
  JK-Pump-1            PUMP       300.00     0  00:00              1.00
  JK-Pump-2            PUMP       300.00     0  00:00              1.00
  XR-Pump-1            PUMP        94.97     0  02:30              1.00
  XR-Pump-2            PUMP        95.00     0  00:00              1.00
  XR-Pump-3            PUMP        95.00     0  00:00              1.00
  XR-Pump-4            PUMP        95.00     0  00:00              1.00
  
  
  ***************************
  Flow Classification Summary
  ***************************
  
  -------------------------------------------------------------------------------------
                      Adjusted    ---------- Fraction of Time in Flow Class ---------- 
                       /Actual         Up    Down  Sub   Sup   Up    Down  Norm  Inlet 
  Conduit               Length    Dry  Dry   Dry   Crit  Crit  Crit  Crit  Ltd   Ctrl  
  -------------------------------------------------------------------------------------
  WS02003066WSF200        1.00   0.11  0.00  0.00  0.00  0.89  0.00  0.00  0.71  0.00
  WS02006287WS02006284    1.00   0.06  0.02  0.00  0.59  0.33  0.00  0.00  0.81  0.00
  WS02006284WS02006280    1.00   0.07  0.00  0.00  0.00  0.00  0.00  0.93  0.00  0.00
  WS02006280WS02006229    1.00   0.07  0.00  0.00  0.00  0.00  0.00  0.93  0.00  0.00
  WS02006229WS02006228    1.00   0.00  0.00  0.00  0.97  0.00  0.00  0.03  0.00  0.00
  WS02006256WS02006235    1.00   0.00  0.00  0.00  0.99  0.01  0.00  0.00  0.00  0.00
  WS02006253WS02006251    1.00   0.04  0.02  0.00  0.94  0.00  0.00  0.00  0.00  0.00
  WS02006252WS02006251    1.00   0.15  0.07  0.00  0.00  0.00  0.78  0.00  0.00  0.00
  WS02006251WS02006249    1.00   0.00  0.00  0.00  1.00  0.00  0.00  0.00  0.79  0.00
  WS02006249WS02006248    1.00   0.00  0.03  0.00  0.40  0.00  0.57  0.00  0.00  0.00
  WS02006248WS02006247    1.00   0.03  0.00  0.00  0.95  0.00  0.00  0.02  0.68  0.00
  WS02006247WS02006245    1.00   0.03  0.00  0.00  0.94  0.00  0.00  0.03  0.00  0.00
  WS02006245WS02006243    1.00   0.03  0.00  0.00  0.90  0.00  0.00  0.07  0.17  0.00
  WS02006243WS02006242    1.00   0.02  0.01  0.00  0.98  0.00  0.00  0.00  0.29  0.00
  WS02006242WS02006240    1.00   0.01  0.00  0.00  0.99  0.00  0.00  0.00  0.00  0.00
  WS02006240WS02006239    1.00   0.00  0.00  0.00  0.92  0.00  0.00  0.08  0.02  0.00
  WS02006239WS02006238    1.00   0.00  0.00  0.00  1.00  0.00  0.00  0.00  0.00  0.00
  WS02006238WS02006235    1.00   0.00  0.00  0.00  1.00  0.00  0.00  0.00  0.00  0.00
  WS02006235WS02006234    1.00   0.00  0.00  0.00  0.91  0.00  0.09  0.00  0.00  0.00
  WS02006234WS02006232    1.00   0.00  0.00  0.00  0.99  0.01  0.00  0.00  0.00  0.00
  WS02006232WS02006231    1.00   0.00  0.01  0.00  0.98  0.00  0.01  0.00  0.00  0.00
  WS02006231WS02006230    1.00   0.01  0.00  0.00  0.39  0.00  0.61  0.00  0.00  0.00
  WS02006230WS02006229    1.00   0.00  0.00  0.00  0.97  0.00  0.00  0.03  0.01  0.00
  WS02006228WS02006109    1.00   0.00  0.00  0.00  0.99  0.00  0.00  0.01  0.00  0.00
  WS02006116WS02004401    1.00   0.03  0.00  0.00  0.97  0.00  0.00  0.00  0.00  0.00
  WS02006115WS02006116    1.00   0.03  0.00  0.00  0.95  0.00  0.00  0.02  0.01  0.00
  WS02006113WS02006111    1.00   0.03  0.00  0.00  0.00  0.97  0.00  0.00  0.20  0.00
  WS02006112WS02006115    1.00   0.03  0.00  0.00  0.96  0.00  0.00  0.00  0.00  0.00
  WS02006111WS02006112    1.00   0.03  0.00  0.00  0.97  0.00  0.00  0.00  0.98  0.00
  WS02006110WS02006113    1.00   0.03  0.00  0.00  0.97  0.00  0.00  0.00  0.00  0.00
  WS02006109WS02006110    1.00   0.00  0.02  0.00  0.97  0.00  0.00  0.00  0.00  0.00
  WS02004411WS02004412    1.00   0.08  0.00  0.00  0.92  0.00  0.00  0.00  0.00  0.00
  WS02004401WS02004402    1.00   0.03  0.00  0.00  0.97  0.00  0.00  0.00  0.00  0.00
  WS02004413WS02003067    1.00   0.08  0.02  0.00  0.00  0.00  0.90  0.00  0.00  0.00
  WS02004412WS02004413    1.00   0.08  0.00  0.00  0.92  0.00  0.00  0.00  0.03  0.00
  WS02004410WS02004411    1.00   0.08  0.00  0.00  0.92  0.00  0.00  0.00  0.01  0.00
  WS02004409WS02004410    1.00   0.08  0.00  0.00  0.92  0.00  0.00  0.00  0.01  0.00
  WS02004407WS02004409    1.00   0.08  0.00  0.00  0.92  0.00  0.00  0.00  0.80  0.00
  WS02004406WS02004407    1.00   0.00  0.08  0.00  0.92  0.00  0.00  0.00  0.00  0.00
  WS02004405WS02004406    1.00   0.00  0.00  0.00  1.00  0.00  0.00  0.00  0.02  0.00
  WS02004404WS02004405    1.00   0.00  0.00  0.00  1.00  0.00  0.00  0.00  0.00  0.00
  WS02004403WS02004404    1.00   0.00  0.04  0.00  0.96  0.00  0.00  0.00  0.02  0.00
  WS02004402WS02004403    1.00   0.04  0.00  0.00  0.96  0.00  0.00  0.00  0.00  0.00
  WS02004139WS02001211    1.00   0.00  0.00  0.00  0.99  0.00  0.01  0.00  0.00  0.00
  WS02004138WS02004139    1.00   0.00  0.00  0.00  0.98  0.02  0.00  0.00  1.00  0.00
  WS02003067WS02003066    1.00   0.10  0.01  0.00  0.89  0.00  0.00  0.00  0.00  0.00
  WS02001213WS02003059    1.00   0.01  0.01  0.00  0.99  0.00  0.00  0.00  0.00  0.00
  WS02001212WS02001213    1.00   0.01  0.00  0.00  0.43  0.00  0.55  0.00  0.00  0.00
  WS02001211WS02001212    1.00   0.00  0.01  0.00  0.99  0.00  0.00  0.00  0.00  0.00
  WS02003072WS02003073    1.00   0.00  0.00  0.00  0.00  0.00  0.00  1.00  0.00  0.00
  WS02003069WS02003072    1.00   0.00  0.00  0.00  0.99  0.01  0.00  0.00  0.71  0.00
  WS02003060WS02003069    1.00   0.00  0.00  0.00  0.96  0.04  0.00  0.00  0.06  0.00
  WS02003059WS02003060    1.00   0.00  0.00  0.00  0.99  0.01  0.00  0.00  0.01  0.00
  HS02004901HS02004770    1.00   0.06  0.00  0.00  0.94  0.00  0.00  0.00  0.03  0.00
  HS02004876HS02004881    1.00   0.03  0.00  0.00  0.97  0.00  0.00  0.00  0.00  0.00
  HS02004870HS02004876    1.00   0.01  0.00  0.00  0.98  0.00  0.00  0.00  0.95  0.00
  HS02004842HS02004848    1.00   0.00  0.07  0.00  0.93  0.00  0.00  0.00  0.70  0.00
  HS02004837HS02004842    1.00   0.00  0.00  0.00  0.98  0.02  0.00  0.00  0.11  0.00
  HS02004830HS02004837    1.00   0.00  0.00  0.00  1.00  0.00  0.00  0.00  0.99  0.00
  HS02004824HS02004830    1.00   0.00  0.00  0.00  1.00  0.00  0.00  0.00  0.00  0.00
  HS02004817HS02004824    1.00   0.00  0.00  0.00  1.00  0.00  0.00  0.00  1.00  0.00
  HS02004770HS02004777    1.00   0.00  0.06  0.00  0.94  0.00  0.00  0.00  0.08  0.00
  HS02004799HS02004480    1.00   0.01  0.03  0.00  0.91  0.00  0.05  0.00  0.00  0.00
  HS02004792HS02004799    1.00   0.00  0.00  0.00  0.98  0.02  0.00  0.00  0.98  0.00
  HS02004788HS02004792    1.00   0.00  0.00  0.00  0.97  0.03  0.00  0.00  0.98  0.00
  HS02004785HS02004788    1.00   0.00  0.00  0.00  1.00  0.00  0.00  0.00  0.00  0.00
  HS02004777HS02004785    1.00   0.00  0.00  0.00  1.00  0.00  0.00  0.00  0.22  0.00
  HS02004480HS02004478    1.00   0.07  0.00  0.00  0.64  0.00  0.00  0.29  0.00  0.00
  HS02004479HS02004480    1.00   0.04  0.00  0.00  0.96  0.00  0.00  0.00  0.16  0.00
  HS02004862HS02004870    1.00   0.00  0.00  0.00  1.00  0.00  0.00  0.00  0.05  0.00
  HS02004848HS02004852    1.00   0.07  0.00  0.00  0.93  0.00  0.00  0.00  0.69  0.00
  HS02004856HS02004862    1.00   0.00  0.10  0.00  0.90  0.00  0.00  0.00  0.73  0.00
  HS02004852HS02004856    1.00   0.06  0.01  0.00  0.92  0.00  0.00  0.00  0.82  0.00
  HS02004802HS02004478    1.00   0.07  0.01  0.00  0.92  0.00  0.00  0.00  0.00  0.00
  HS02004478WS02006287    1.00   0.08  0.00  0.00  0.92  0.00  0.00  0.00  0.81  0.00
  HS02004817HS02004807    1.00   0.00  0.07  0.00  0.93  0.00  0.00  0.00  0.00  0.00
  HS02004807HS02004802    1.00   0.07  0.00  0.00  0.93  0.00  0.00  0.00  0.01  0.00
  YS02001759YS02001757    1.00   0.00  0.00  0.00  1.00  0.00  0.00  0.00  0.17  0.00
  YS02001762YS02001759    1.00   0.00  0.00  0.00  1.00  0.00  0.00  0.00  0.05  0.00
  YS02001765YS02001762    1.00   0.00  0.00  0.00  1.00  0.00  0.00  0.00  0.23  0.00
  YS02001770YS02001767    1.00   0.00  0.00  0.00  1.00  0.00  0.00  0.00  0.00  0.00
  YS02001774YS02001770    1.00   0.01  0.08  0.00  0.92  0.00  0.00  0.00  0.06  0.00
  YS02001779YS02001774    1.00   0.00  0.00  0.00  1.00  0.00  0.00  0.00  0.28  0.00
  YS02001649YS02001757    1.00   0.00  0.00  0.00  1.00  0.00  0.00  0.00  0.20  0.00
  YS02001767YS02001765    1.00   0.00  0.00  0.00  1.00  0.00  0.00  0.00  0.01  0.00
  YS02006561YS02001783    1.00   0.11  0.00  0.00  0.00  0.89  0.00  0.00  0.72  0.00
  YS02001783YS02001784    1.00   0.00  0.11  0.00  0.89  0.00  0.00  0.00  0.06  0.00
  YS02001784YS02001785    1.00   0.00  0.00  0.00  1.00  0.00  0.00  0.00  0.26  0.00
  YS02001788YS02001790    1.00   0.00  0.00  0.00  0.11  0.89  0.00  0.00  0.95  0.00
  YS02001790YS02001791    1.00   0.00  0.00  0.00  0.03  0.97  0.00  0.00  0.40  0.00
  YS02001791YS02001793    1.00   0.00  0.00  0.00  0.00  1.00  0.00  0.00  0.00  0.00
  YS02001910YS02001907    1.00   0.00  0.00  0.00  0.97  0.00  0.00  0.03  0.13  0.00
  YS02001786YS02001788    1.00   0.00  0.00  0.00  0.12  0.88  0.00  0.00  0.00  0.00
  YS02001915YS02001910    1.00   0.00  0.00  0.00  1.00  0.00  0.00  0.00  0.25  0.00
  YS02001918YS02001915    1.00   0.00  0.01  0.00  0.98  0.01  0.00  0.00  0.80  0.00
  YS02001923YS02001920    1.00   0.00  0.00  0.00  1.00  0.00  0.00  0.00  1.00  0.00
  YS02001926YS02001923    1.00   0.00  0.05  0.00  0.00  0.00  0.95  0.00  0.00  0.00
  YS02001929YS02001926    1.00   0.00  0.06  0.00  0.94  0.00  0.00  0.00  0.86  0.00
  YS02001920YS02001918    1.00   0.00  0.01  0.00  0.99  0.00  0.00  0.00  0.00  0.00
  YS02001629YS02163301    1.00   0.09  0.01  0.00  0.90  0.00  0.00  0.00  0.00  0.00
  YS02001619YS02001622    1.00   0.06  0.00  0.00  0.94  0.00  0.00  0.00  0.00  0.00
  YS02001622YS02001625    1.00   0.06  0.00  0.00  0.94  0.00  0.00  0.00  0.14  0.00
  YS02001625YS02001629    1.00   0.07  0.04  0.00  0.85  0.00  0.04  0.00  0.00  0.00
  YS02163301YS02001633    1.00   0.00  0.09  0.00  0.91  0.00  0.00  0.00  0.00  0.00
  YS02163601YS02164001    1.00   0.00  0.05  0.00  0.95  0.00  0.00  0.00  0.00  0.00
  YS02164001YS02001641    1.00   0.02  0.03  0.00  0.95  0.00  0.00  0.00  0.07  0.00
  YS02001641YS02001644    1.00   0.00  0.02  0.00  0.98  0.00  0.00  0.00  0.00  0.00
  YS02001647YS02001649    1.00   0.00  0.10  0.00  0.89  0.00  0.00  0.00  0.01  0.00
  YS02006553YS02006556    1.00   0.03  0.00  0.00  0.97  0.00  0.00  0.00  0.03  0.00
  YS02006556YS02006558    1.00   0.00  0.01  0.00  0.99  0.00  0.00  0.00  0.00  0.00
  YSB6556YSB1171          1.00   0.04  0.02  0.00  0.94  0.00  0.00  0.00  0.00  0.00
  YS02001907YS02006553    1.00   0.01  0.02  0.00  0.97  0.00  0.00  0.00  0.00  0.00
  YS02006558YS02006561    1.00   0.11  0.00  0.00  0.00  0.89  0.00  0.00  0.71  0.00
  YS02001633YS02163601    1.00   0.00  0.02  0.00  0.98  0.00  0.00  0.00  0.20  0.00
  YS02001644YS02001647    1.00   0.00  0.11  0.00  0.89  0.00  0.00  0.00  0.00  0.00
  YS02001745YS02001748    1.00   0.00  0.00  0.00  0.35  0.04  0.00  0.60  0.31  0.00
  YS02001748YS02001751    1.00   0.00  0.00  0.00  0.95  0.05  0.00  0.00  0.28  0.00
  YS02001751YS02001754    1.00   0.00  0.00  0.00  0.88  0.00  0.00  0.12  0.02  0.00
  YS02001754YS02001757    1.00   0.00  0.00  0.00  0.98  0.02  0.00  0.00  0.27  0.00
  YS02001882YS02001884    1.00   0.09  0.01  0.00  0.91  0.00  0.00  0.00  0.00  0.00
  YS02001884YS02001887    1.00   0.04  0.02  0.00  0.94  0.00  0.00  0.00  0.00  0.00
  YS02001890YS02001895    1.00   0.01  0.09  0.00  0.90  0.00  0.00  0.00  0.00  0.00
  YS02001895YS02001898    1.00   0.10  0.00  0.00  0.89  0.00  0.01  0.00  0.00  0.00
  YS02001898YS02001901    1.00   0.09  0.01  0.00  0.90  0.00  0.00  0.00  0.02  0.00
  YS02001901YS02001904    1.00   0.09  0.00  0.00  0.91  0.00  0.00  0.00  0.00  0.00
  YS02001904YS02001907    1.00   0.01  0.09  0.00  0.91  0.00  0.00  0.00  0.00  0.00
  YS02001887YS02001890    1.00   0.00  0.01  0.00  0.97  0.00  0.03  0.00  0.00  0.00
  YS02001652YS02001649    1.00   0.00  0.00  0.00  1.00  0.00  0.00  0.00  0.27  0.00
  YS02001655YS02001652    1.00   0.00  0.00  0.00  0.88  0.00  0.00  0.11  0.02  0.00
  YS02001658YS02001655    1.00   0.00  0.08  0.00  0.86  0.05  0.00  0.00  0.31  0.00
  YS02001661YS02001658    1.00   0.08  0.00  0.00  0.38  0.54  0.00  0.00  0.51  0.00
  YS02001664YS02001661    1.00   0.06  0.00  0.00  0.94  0.00  0.00  0.00  0.86  0.00
  YSB1154YSB6556          1.00   0.06  0.00  0.00  0.94  0.00  0.00  0.00  0.02  0.00
  YSB1174YSB1171          1.00   0.04  0.01  0.00  0.95  0.00  0.00  0.00  0.00  0.00
  YSB1171HS02004479       1.00   0.04  0.00  0.00  0.96  0.00  0.00  0.00  0.13  0.00
  HS02004881HS02006253    1.00   0.04  0.00  0.00  0.35  0.01  0.00  0.60  0.17  0.00
  YS02001793JiankangQianchi    1.00   0.00  0.00  0.00  0.21  0.78  0.00  0.00  0.11  0.00
  YS02001757CaochengTiaoxuchi    1.00   0.00  0.15  0.00  0.85  0.00  0.00  0.00  0.00  0.00
  WSF200WS02003060        1.00   0.00  0.11  0.00  0.56  0.33  0.00  0.00  0.51  0.00
  1                       1.00   0.00  0.00  0.00  0.00  1.00  0.00  0.00  0.23  0.00
  2                       1.00   1.00  0.00  0.00  0.00  0.00  0.00  0.00  0.00  0.00
  3                       1.00   0.26  0.00  0.00  0.00  0.74  0.00  0.00  0.00  0.00
  4                       1.00   1.00  0.00  0.00  0.00  0.00  0.00  0.00  0.00  0.00
  
  
  *************************
  Conduit Surcharge Summary
  *************************
  
  ----------------------------------------------------------------------------
                                                           Hours        Hours 
                         --------- Hours Full --------   Above Full   Capacity
  Conduit                Both Ends  Upstream  Dnstream   Normal Flow   Limited
  ----------------------------------------------------------------------------
  WS02006229WS02006228        0.01      0.09      0.01      1.37         0.01
  WS02006256WS02006235        5.53      5.53      7.83      4.85         0.01
  WS02006249WS02006248        0.01      0.01      0.01      1.27         0.01
  WS02006247WS02006245        0.01      0.01      0.01      1.37         0.01
  WS02006235WS02006234        0.01      0.01      0.01      5.14         0.01
  WS02006231WS02006230        0.01      0.01      0.01      5.52         0.01
  WS02006230WS02006229        0.60      1.08      0.60      5.59         0.60
  WS02006228WS02006109        0.01      0.38      0.01      1.69         0.01
  WS02006111WS02006112        0.01      0.01      1.43      0.01         0.01
  WS02006110WS02006113        0.01      0.01      0.23      0.01         0.01
  WS02006109WS02006110        0.01      0.01      0.38      0.01         0.01
  WS02004404WS02004405        0.01      0.01      0.01      5.47         0.01
  WS02003072WS02003073        0.01      0.01      0.01      1.66         0.01
  YS02001759YS02001757        2.79      2.79      3.40      0.01         0.01
  YS02001762YS02001759        2.55      2.55      2.79      0.01         0.01
  YS02001765YS02001762        2.17      2.17      2.55      0.01         0.01
  YS02001770YS02001767        1.86      1.86      1.91      0.01         0.01
  YS02001774YS02001770        1.61      1.61      2.39      0.01         0.01
  YS02001779YS02001774        0.01      0.01      2.39      0.01         0.01
  YS02001649YS02001757        2.62      2.62      3.40      0.01         0.01
  YS02001767YS02001765        1.91      1.91      2.17      0.01         0.01
  YS02001629YS02163301        1.41      1.41      1.67      0.01         0.01
  YS02001622YS02001625        0.01      0.01      0.89      0.01         0.01
  YS02001625YS02001629        0.01      0.01      0.89      0.01         0.01
  YS02163301YS02001633        1.67      1.67      2.17      0.01         0.01
  YS02163601YS02164001        2.13      2.13      2.55      0.01         0.01
  YS02164001YS02001641        2.13      2.13      2.27      0.01         0.01
  YS02001641YS02001644        2.27      2.27      2.31      0.01         0.04
  YS02001647YS02001649        0.82      0.82      2.62      0.01         0.01
  YS02001633YS02163601        2.01      2.01      2.55      0.01         0.01
  YS02001644YS02001647        0.82      0.82      2.31      0.01         0.01
  YS02001751YS02001754        0.01      0.01      0.30      0.01         0.01
  YS02001754YS02001757        0.84      0.84      3.40      0.01         0.01
  YS02001652YS02001649        0.96      0.96      2.62      0.01         0.01
  YS02001655YS02001652        0.01      0.01      0.66      0.01         0.01
  YS02001793JiankangQianchi        0.01      0.01      0.59      0.01         0.01
  YS02001757CaochengTiaoxuchi        0.01      0.01      3.40      0.01         0.01
  3                           0.01      0.01      0.01      0.01         0.01
  
  
  ***************
  Pumping Summary
  ***************
  
  ---------------------------------------------------------------------------------------------------------
                                                  Min       Avg       Max     Total     Power    % Time Off
                        Percent   Number of      Flow      Flow      Flow    Volume     Usage    Pump Curve
  Pump                 Utilized   Start-Ups       LPS       LPS       LPS  10^6 ltr     Kw-hr    Low   High
  ---------------------------------------------------------------------------------------------------------
  CC-Pump-1               19.46           1      0.00    183.66    200.00     0.992      4.11    0.0  100.0
  CC-Pump-2                0.00           0      0.00      0.00      0.00     0.000      0.00    0.0    0.0
  JK-Pump-1               95.75           2      0.00    124.13    300.00     2.030     36.89    0.0    0.0
  JK-Pump-2               85.10           2      0.00     87.24    300.00     1.326     25.41    0.0    0.0
  XR-Pump-1                4.25           1      0.00     46.34     94.97     0.057      0.91    0.0    0.0
  XR-Pump-2               44.68           2      0.00     86.87     95.00     1.112     16.52    0.0    0.0
  XR-Pump-3               80.84           3      0.00     86.47     95.00     2.052     19.22    0.0    0.0
  XR-Pump-4               85.10           3      0.00     87.32     95.00     2.166     20.93    0.0    0.0
  

  Analysis begun on:  Tue Dec 21 16:21:11 2021
  Analysis ended on:  Tue Dec 21 16:21:12 2021
  Total elapsed time: 00:00:01