
  EPA STORM WATER MANAGEMENT MODEL - VERSION 5.1 (Build 5.3.0.dev0)
  --------------------------------------------------------------

  WARNING 04: minimum elevation drop used for Conduit WS02004404WS02004405
  WARNING 03: negative offset ignored for Link YS02001904YS02001907
  
  *********************************************************
  NOTE: The summary statistics displayed in this report are
  based on results found at every computational time step,  
  not just on results from each reporting time step.
  *********************************************************
  
  ****************
  Analysis Options
  ****************
  Flow Units ............... LPS
  Process Models:
    Rainfall/Runoff ........ YES
    RDII ................... NO
    Snowmelt ............... NO
    Groundwater ............ NO
    Flow Routing ........... YES
    Ponding Allowed ........ NO
    Water Quality .......... NO
  Infiltration Method ...... HORTON
  Flow Routing Method ...... DYNWAVE
  Surcharge Method ......... EXTRAN
  Starting Date ............ 08/28/2015 08:00:00
  Ending Date .............. 08/28/2015 15:50:00
  Antecedent Dry Days ...... 8.0
  Report Time Step ......... 00:01:00
  Wet Time Step ............ 00:01:00
  Dry Time Step ............ 00:01:00
  Routing Time Step ........ 5.00 sec
  Variable Time Step ....... YES
  Maximum Trials ........... 8
  Number of Threads ........ 4
  Head Tolerance ........... 0.001500 m
  
  
  **************************        Volume         Depth
  Runoff Quantity Continuity     hectare-m            mm
  **************************     ---------       -------
  Total Precipitation ......         1.359         2.976
  Evaporation Loss .........         0.000         0.000
  Infiltration Loss ........         0.328         0.719
  Surface Runoff ...........         0.320         0.701
  Final Storage ............         0.711         1.557
  Continuity Error (%) .....        -0.014
  
  
  **************************        Volume        Volume
  Flow Routing Continuity        hectare-m      10^6 ltr
  **************************     ---------     ---------
  Dry Weather Inflow .......         0.616         6.165
  Wet Weather Inflow .......         0.320         3.199
  Groundwater Inflow .......         0.000         0.000
  RDII Inflow ..............         0.000         0.000
  External Inflow ..........         0.102         1.024
  External Outflow .........         0.850         8.495
  Flooding Loss ............         0.046         0.464
  Evaporation Loss .........         0.000         0.000
  Exfiltration Loss ........         0.000         0.000
  Initial Stored Volume ....         0.076         0.761
  Final Stored Volume ......         0.279         2.793
  Continuity Error (%) .....        -5.423
  
  
  *************************
  Highest Continuity Errors
  *************************
  Node JK-storage (-53.60%)
  Node HS02004842 (48.48%)
  Node YS02001774 (41.04%)
  Node YS02001884 (40.92%)
  Node YSB1171 (16.59%)
  
  
  ***************************
  Time-Step Critical Elements
  ***************************
  Link WS02006252WS02006251 (44.52%)
  Link YS02001793JiankangQianchi (25.56%)
  Link 3 (9.15%)
  Link WS02006280WS02006229 (8.75%)
  Link WS02006256WS02006235 (2.37%)
  
  
  ********************************
  Highest Flow Instability Indexes
  ********************************
  Link WS02006113WS02006111 (48)
  Link WS02006111WS02006112 (22)
  Link YS02001754YS02001757 (7)
  Link YS02001762YS02001759 (7)
  Link YS02001751YS02001754 (6)
  
  
  *************************
  Routing Time Step Summary
  *************************
  Minimum Time Step           :     0.52 sec
  Average Time Step           :     2.27 sec
  Maximum Time Step           :     5.00 sec
  Percent in Steady State     :     0.00
  Average Iterations per Step :     2.02
  Percent Not Converging      :     0.00
  
  
  ***************************
  Subcatchment Runoff Summary
  ***************************
  
  ------------------------------------------------------------------------------------------------------------------------------
                            Total      Total      Total      Total     Imperv       Perv      Total       Total     Peak  Runoff
                           Precip      Runon       Evap      Infil     Runoff     Runoff     Runoff      Runoff   Runoff   Coeff
  Subcatchment                 mm         mm         mm         mm         mm         mm         mm    10^6 ltr      LPS
  ------------------------------------------------------------------------------------------------------------------------------
  sub0                       2.98       0.00       0.00       0.21       1.50       0.00       1.50        0.00     0.34   0.505
  sub1                       2.98       0.00       0.00       0.33       1.40       0.00       1.40        0.01     1.81   0.470
  sub2                       2.98       0.00       0.00       1.10       0.97       0.00       0.97        0.01     1.60   0.327
  sub3                       2.98       0.00       0.00       1.10       0.95       0.00       0.95        0.02     3.30   0.318
  sub4                       2.98       0.00       0.00       0.33       1.29       0.00       1.29        0.03     3.71   0.433
  sub5                       2.98       0.00       0.00       0.21       1.46       0.00       1.46        0.02     3.21   0.491
  sub7                       2.98       0.00       0.00       0.27       1.45       0.00       1.45        0.00     1.12   0.489
  sub8                       2.98       0.00       0.00       0.27       1.45       0.00       1.45        0.01     1.99   0.486
  sub9                       2.98       0.00       0.00       0.27       1.44       0.00       1.44        0.01     1.48   0.485
  sub10                      2.98       0.00       0.00       0.24       1.45       0.00       1.45        0.02     3.20   0.487
  sub11                      2.98       0.00       0.00       0.24       1.47       0.00       1.47        0.02     3.74   0.492
  sub12                      2.98       0.00       0.00       0.39       1.40       0.00       1.40        0.01     3.14   0.471
  sub14                      2.98       0.00       0.00       0.27       1.44       0.00       1.44        0.01     2.88   0.485
  sub15                      2.98       0.00       0.00       0.89       1.11       0.00       1.11        0.02     3.92   0.372
  sub16                      2.98       0.00       0.00       0.98       1.08       0.00       1.08        0.01     2.77   0.362
  sub17                      2.98       0.00       0.00       0.95       1.09       0.00       1.09        0.01     2.24   0.366
  sub22                      2.98       0.00       0.00       1.28       0.91       0.00       0.91        0.06    12.78   0.305
  sub23                      2.98       0.00       0.00       1.10       1.01       0.00       1.01        0.05    10.87   0.338
  sub60                      2.98       0.00       0.00       0.36       0.74       0.00       0.74        0.23    17.58   0.250
  sub61                      2.98       0.00       0.00       0.51       0.85       0.00       0.85        0.26    22.98   0.285
  sub62                      2.98       0.00       0.00       0.24       0.89       0.00       0.89        0.27    23.24   0.299
  sub63                      2.98       0.00       0.00       0.86       0.77       0.00       0.77        0.23    21.69   0.260
  sub64                      2.98       0.00       0.00       0.45       0.71       0.00       0.71        0.21    16.64   0.237
  sub65                      2.98       0.00       0.00       0.39       0.71       0.00       0.71        0.22    16.82   0.239
  sub66                      2.98       0.00       0.00       0.86       0.63       0.00       0.63        0.19    15.47   0.211
  sub67                      2.98       0.00       0.00       0.24       1.04       0.00       1.04        0.32    30.64   0.349
  sub68                      2.98       0.00       0.00       0.42       0.92       0.00       0.92        0.28    25.60   0.308
  sub69                      2.98       0.00       0.00       0.45       1.05       0.00       1.05        0.25    25.82   0.354
  sub70                      2.98       1.07       0.00       1.38       1.10       0.00       1.10        0.25    17.13   0.271
  sub71                      2.98       0.00       0.00       0.24       0.83       0.00       0.83        0.20    15.98   0.280
  sub72                      2.98       0.00       0.00       0.21       0.52       0.00       0.52        0.11     6.96   0.174
  sub73                      2.98       1.07       0.00       1.37       1.01       0.00       1.01        0.24    14.81   0.250
  sub74                      2.98       0.00       0.00       2.23       0.32       0.00       0.32        0.13    14.44   0.109
  
  
  ******************
  Node Depth Summary
  ******************
  
  ---------------------------------------------------------------------------------
                                 Average  Maximum  Maximum  Time of Max    Reported
                                   Depth    Depth      HGL   Occurrence   Max Depth
  Node                 Type       Meters   Meters   Meters  days hr:min      Meters
  ---------------------------------------------------------------------------------
  WS02001211           JUNCTION     0.56     0.69     5.53     0  01:08        0.69
  WS02001212           JUNCTION     0.30     0.40     5.46     0  01:09        0.40
  WS02001213           JUNCTION     0.49     0.59     5.36     0  01:50        0.59
  WS02003069           JUNCTION     0.30     0.38     4.96     0  04:19        0.38
  WS02003072           JUNCTION     0.36     0.45     4.82     0  04:20        0.45
  WS02003073           JUNCTION     0.21     0.27     4.33     0  04:21        0.27
  WS02003060           JUNCTION     0.27     0.34     5.27     0  04:18        0.34
  WS02003066           JUNCTION     0.15     0.22     5.77     0  03:31        0.22
  WS02003059           JUNCTION     0.55     0.64     5.33     0  01:51        0.64
  WS02003067           JUNCTION     0.40     0.56     5.88     0  03:30        0.56
  WS02004401           JUNCTION     0.48     0.62     6.62     0  03:25        0.62
  WS02004402           JUNCTION     0.51     0.66     6.62     0  03:26        0.66
  WS02004403           JUNCTION     0.53     0.68     6.61     0  03:26        0.68
  WS02004404           JUNCTION     0.61     0.76     6.61     0  03:26        0.76
  WS02004406           JUNCTION     0.62     0.77     6.60     0  03:26        0.77
  WS02004409           JUNCTION     0.29     0.44     6.21     0  03:29        0.44
  WS02004410           JUNCTION     0.31     0.46     6.18     0  03:29        0.46
  WS02004411           JUNCTION     0.33     0.48     6.16     0  03:30        0.48
  WS02004412           JUNCTION     0.36     0.51     6.15     0  03:30        0.51
  WS02004413           JUNCTION     0.51     0.67     6.14     0  03:30        0.67
  WS02004405           JUNCTION     0.61     0.76     6.61     0  03:26        0.76
  WS02006109           JUNCTION     0.53     0.69     7.30     0  03:21        0.69
  WS02006110           JUNCTION     0.55     0.69     7.28     0  03:21        0.69
  WS02006111           JUNCTION     0.14     0.20     6.90     0  03:21        0.20
  WS02006112           JUNCTION     0.61     0.78     6.67     0  03:24        0.78
  WS02006113           JUNCTION     0.20     0.30     7.19     0  03:21        0.30
  WS02006115           JUNCTION     0.36     0.50     6.64     0  03:25        0.50
  WS02006116           JUNCTION     0.44     0.59     6.63     0  03:25        0.59
  WS02006230           JUNCTION     0.44     0.61     7.35     0  03:20        0.61
  WS02006231           JUNCTION     0.28     0.41     7.53     0  04:08        0.41
  WS02006232           JUNCTION     0.40     0.54     7.58     0  04:08        0.54
  WS02006234           JUNCTION     0.29     0.44     7.60     0  04:08        0.44
  WS02006235           JUNCTION     0.32     0.47     7.64     0  04:08        0.47
  WS02006238           JUNCTION     0.34     0.49     7.64     0  04:07        0.49
  WS02006240           JUNCTION     0.21     0.37     7.66     0  03:20        0.37
  WS02006242           JUNCTION     0.25     0.43     7.70     0  03:19        0.43
  WS02006243           JUNCTION     0.13     0.30     7.72     0  03:19        0.30
  WS02006245           JUNCTION     0.13     0.30     7.78     0  03:18        0.30
  WS02006247           JUNCTION     0.14     0.32     7.82     0  03:18        0.32
  WS02006248           JUNCTION     0.11     0.27     7.86     0  03:17        0.27
  WS02006249           JUNCTION     0.15     0.32     7.92     0  03:17        0.32
  WS02006239           JUNCTION     0.28     0.44     7.65     0  03:20        0.44
  WS02006251           JUNCTION     0.13     0.30     7.97     0  03:16        0.30
  WS02006252           JUNCTION     0.13     0.28     8.52     0  03:15        0.28
  WS02006253           JUNCTION     0.16     0.33     7.98     0  03:16        0.33
  WS02006256           JUNCTION     0.72     1.15     8.08     0  00:00        1.10
  WS02004138           JUNCTION     0.12     0.17     7.42     0  00:00        0.17
  WS02004407           JUNCTION     0.13     0.20     6.51     0  03:26        0.20
  WS02006228           JUNCTION     0.51     0.67     7.32     0  03:20        0.67
  WS02006229           JUNCTION     0.47     0.63     7.33     0  03:20        0.63
  WS02006280           JUNCTION     0.04     0.08     8.35     0  02:37        0.08
  WS02006284           JUNCTION     0.32     0.39     8.79     0  02:37        0.39
  WS02006287           JUNCTION     0.06     0.11     9.07     0  02:37        0.11
  WSF200               JUNCTION     0.12     0.20     5.43     0  03:31        0.20
  HS02004901           JUNCTION     0.09     0.15     9.97     0  02:36        0.15
  HS02004881           JUNCTION     0.00     0.01     9.04     0  02:35        0.01
  HS02004876           JUNCTION     0.03     0.06     9.09     0  02:36        0.06
  HS02004870           JUNCTION     0.01     0.02     9.30     0  02:34        0.02
  HS02004862           JUNCTION     0.01     0.02     9.40     0  02:36        0.02
  HS02004856           JUNCTION     0.06     0.08     9.51     0  02:35        0.08
  HS02004852           JUNCTION     0.00     0.01     9.52     0  02:37        0.01
  HS02004848           JUNCTION     0.00     0.01     9.61     0  02:31        0.01
  HS02004842           JUNCTION     0.31     0.34     9.61     0  02:31        0.34
  HS02004837           JUNCTION     0.02     0.03     9.61     0  02:31        0.03
  HS02004830           JUNCTION     0.03     0.04     9.51     0  02:32        0.04
  HS02004824           JUNCTION     0.02     0.02     9.43     0  02:36        0.02
  HS02004817           JUNCTION     0.39     0.45     9.30     0  02:37        0.45
  HS02004807           JUNCTION     0.09     0.13     9.30     0  02:37        0.13
  HS02004802           JUNCTION     0.13     0.17     9.30     0  02:37        0.17
  HS02004799           JUNCTION     0.08     0.14     9.35     0  02:35        0.14
  HS02004792           JUNCTION     0.02     0.04     9.56     0  02:34        0.04
  HS02004788           JUNCTION     0.01     0.03     9.93     0  02:36        0.03
  HS02004785           JUNCTION     0.03     0.06     9.97     0  02:36        0.06
  HS02004777           JUNCTION     0.11     0.17     9.97     0  02:36        0.17
  HS02004770           JUNCTION     0.08     0.14     9.97     0  02:35        0.14
  HS02004480           JUNCTION     0.05     0.10     9.34     0  02:35        0.10
  HS02004479           JUNCTION     0.08     0.14     9.34     0  02:36        0.14
  HS02004478           JUNCTION     0.04     0.07     9.29     0  02:36        0.07
  YS02001745           JUNCTION     0.04     0.06     7.58     0  03:01        0.06
  YS02001748           JUNCTION     0.06     0.16     7.24     0  07:49        0.16
  YS02001751           JUNCTION     0.16     0.36     7.24     0  07:49        0.36
  YS02001754           JUNCTION     0.37     0.64     7.25     0  07:49        0.64
  YS02001762           JUNCTION     0.54     0.84     7.24     0  07:49        0.84
  YS02001765           JUNCTION     0.50     0.79     7.24     0  07:49        0.79
  YS02001767           JUNCTION     0.47     0.75     7.24     0  07:49        0.75
  YS02001770           JUNCTION     0.47     0.74     7.24     0  07:49        0.74
  YS02001774           JUNCTION     0.52     0.82     7.24     0  07:49        0.82
  YS02001779           JUNCTION     0.31     0.55     7.24     0  07:50        0.55
  YS02001882           JUNCTION     0.16     0.24     6.95     0  03:03        0.24
  YS02001884           JUNCTION     0.25     0.34     6.95     0  03:03        0.34
  YS02001759           JUNCTION     0.57     0.88     7.24     0  07:49        0.87
  YS02001887           JUNCTION     0.32     0.42     6.95     0  03:03        0.42
  YS02001890           JUNCTION     0.35     0.45     6.95     0  03:03        0.45
  YS02001898           JUNCTION     0.14     0.21     6.94     0  03:04        0.21
  YS02001901           JUNCTION     0.24     0.33     6.94     0  03:05        0.33
  YS02001904           JUNCTION     0.23     0.31     6.94     0  03:05        0.31
  YS02001907           JUNCTION     0.53     0.65     6.94     0  03:04        0.65
  YS02001910           JUNCTION     0.33     0.43     6.94     0  03:04        0.43
  YS02001915           JUNCTION     0.16     0.22     6.94     0  03:03        0.22
  YS02001918           JUNCTION     0.04     0.05     7.12     0  03:06        0.05
  YS02001619           JUNCTION     0.13     0.31     7.24     0  07:49        0.31
  YS02001629           JUNCTION     0.42     0.69     7.24     0  07:49        0.69
  YS02001641           JUNCTION     0.51     0.80     7.24     0  07:49        0.80
  YS02001644           JUNCTION     0.52     0.81     7.24     0  07:50        0.81
  YS02001652           JUNCTION     0.38     0.64     7.24     0  07:49        0.64
  YS02001655           JUNCTION     0.18     0.39     7.24     0  07:49        0.39
  YS02001920           JUNCTION     0.12     0.14     7.14     0  03:05        0.14
  YS02001923           JUNCTION     0.03     0.04     7.30     0  03:04        0.04
  YS02001926           JUNCTION     0.08     0.10     7.55     0  03:03        0.10
  YS02001929           JUNCTION     0.03     0.04     7.74     0  03:01        0.04
  YS02001658           JUNCTION     0.05     0.10     7.24     0  07:49        0.10
  YS02001661           JUNCTION     0.10     0.14     7.54     0  03:01        0.14
  YS02001664           JUNCTION     0.04     0.06     7.98     0  03:01        0.06
  YS02001622           JUNCTION     0.14     0.33     7.24     0  07:50        0.33
  YS02001633           JUNCTION     0.50     0.78     7.24     0  07:50        0.78
  YS02001649           JUNCTION     0.55     0.85     7.24     0  07:49        0.85
  YS02001757           JUNCTION     0.67     0.98     7.24     0  07:49        0.98
  YS02001895           JUNCTION     0.14     0.20     6.95     0  03:03        0.20
  YS02001625           JUNCTION     0.39     0.63     7.24     0  07:50        0.63
  YS02163301           JUNCTION     0.44     0.72     7.24     0  07:49        0.72
  YS02163601           JUNCTION     0.55     0.84     7.24     0  07:49        0.84
  YS02164001           JUNCTION     0.49     0.78     7.24     0  07:49        0.78
  YS02001647           JUNCTION     0.37     0.63     7.24     0  07:49        0.63
  YSB1154              JUNCTION     0.21     0.29     9.34     0  02:35        0.29
  YSB6556              JUNCTION     0.11     0.17     9.34     0  02:36        0.17
  YSB1174              JUNCTION     0.17     0.23     9.34     0  02:35        0.23
  YSB1171              JUNCTION     0.35     0.44     9.34     0  02:36        0.44
  YS02006553           JUNCTION     0.54     0.66     6.94     0  03:04        0.66
  YS02006561           JUNCTION     0.07     0.11     6.77     0  03:05        0.11
  YS02006556           JUNCTION     0.51     0.63     6.94     0  03:04        0.63
  YS02006558           JUNCTION     0.56     0.67     6.94     0  03:05        0.67
  YS02001783           JUNCTION     0.12     0.19     6.33     0  03:05        0.19
  YS02001784           JUNCTION     0.16     0.22     6.29     0  03:05        0.22
  YS02001786           JUNCTION     0.13     0.19     6.22     0  03:06        0.19
  YS02001788           JUNCTION     0.09     0.13     6.11     0  03:06        0.13
  YS02001790           JUNCTION     0.11     0.16     5.81     0  03:06        0.16
  YS02001791           JUNCTION     0.07     0.11     5.58     0  03:06        0.11
  YS02001793           JUNCTION     0.05     0.07     4.91     0  03:06        0.07
  WS02004139           JUNCTION     0.50     0.63     5.54     0  01:11        0.63
  WSC                  OUTFALL      0.21     0.27     0.94     0  04:21        0.27
  3                    OUTFALL      0.01     0.13     6.13     0  00:00        0.10
  4                    OUTFALL      0.00     0.00     7.00     0  00:00        0.00
  5                    OUTFALL      0.00     0.00     5.00     0  00:00        0.00
  JK-storage           STORAGE      0.11     3.00     3.80     0  00:00        2.70
  CC-storage           STORAGE      0.04     0.24     7.24     0  07:50        0.24
  XR-storage           STORAGE      6.01     7.72     5.72     0  03:47        7.72
  
  
  *******************
  Node Inflow Summary
  *******************
  
  -------------------------------------------------------------------------------------------------
                                  Maximum  Maximum                  Lateral       Total        Flow
                                  Lateral    Total  Time of Max      Inflow      Inflow     Balance
                                   Inflow   Inflow   Occurrence      Volume      Volume       Error
  Node                 Type           LPS      LPS  days hr:min    10^6 ltr    10^6 ltr     Percent
  -------------------------------------------------------------------------------------------------
  WS02001211           JUNCTION      7.35   292.67     0  00:56       0.207         5.4       0.540
  WS02001212           JUNCTION      0.00   292.67     0  01:09           0        5.37       0.296
  WS02001213           JUNCTION      0.00   292.67     0  01:47           0        5.35       0.348
  WS02003069           JUNCTION      0.32   443.50     0  04:19     0.00902         8.4       0.209
  WS02003072           JUNCTION      0.00   443.47     0  04:19           0        8.39       0.286
  WS02003073           JUNCTION      1.82   445.26     0  04:20      0.0514        8.41       0.296
  WS02003060           JUNCTION     16.53   443.14     0  04:18       0.466        8.41       0.201
  WS02003066           JUNCTION      0.00   249.19     0  03:31           0        2.65       0.085
  WS02003059           JUNCTION      0.00   292.67     0  01:44           0        5.33       0.555
  WS02003067           JUNCTION      0.00   249.20     0  03:30           0        2.65       0.213
  WS02004401           JUNCTION      0.00   251.26     0  03:23           0        2.79       0.480
  WS02004402           JUNCTION      0.00   250.90     0  03:24           0        2.78       0.477
  WS02004403           JUNCTION      0.00   250.67     0  03:24           0        2.76       0.454
  WS02004404           JUNCTION      0.16   250.69     0  03:25     0.00457        2.76       0.365
  WS02004406           JUNCTION      0.00   250.58     0  03:25           0        2.73       0.905
  WS02004409           JUNCTION      0.00   250.53     0  03:26           0        2.71       0.242
  WS02004410           JUNCTION      0.00   250.07     0  03:27           0         2.7       0.307
  WS02004411           JUNCTION      0.00   249.67     0  03:28           0        2.69       0.347
  WS02004412           JUNCTION      0.00   249.40     0  03:29           0        2.68       0.420
  WS02004413           JUNCTION      0.00   249.25     0  03:29           0        2.67       0.687
  WS02004405           JUNCTION      0.04   250.65     0  03:25     0.00107        2.75       0.548
  WS02006109           JUNCTION      1.23   252.61     0  03:20      0.0347        2.85       0.506
  WS02006110           JUNCTION      0.00   252.57     0  03:20           0        2.84       0.415
  WS02006111           JUNCTION      0.00   254.49     0  03:21           0        2.82       0.071
  WS02006112           JUNCTION      2.24   253.08     0  03:21     0.00935        2.83       0.714
  WS02006113           JUNCTION      0.00   252.54     0  03:21           0        2.83       0.135
  WS02006115           JUNCTION      0.00   252.44     0  03:22           0        2.81       0.355
  WS02006116           JUNCTION      0.00   251.75     0  03:23           0         2.8       0.363
  WS02006230           JUNCTION     10.28   223.21     0  04:08        0.29        2.39       0.296
  WS02006231           JUNCTION      0.00   213.06     0  04:08           0        2.11       0.225
  WS02006232           JUNCTION      0.00   213.21     0  04:08           0        2.12       0.429
  WS02006234           JUNCTION      0.00   213.46     0  04:07           0        2.12       0.046
  WS02006235           JUNCTION      0.00   213.62     0  04:07           0        2.16       0.278
  WS02006238           JUNCTION      0.00   129.30     0  03:20           0       0.587       0.443
  WS02006240           JUNCTION      0.00   129.49     0  03:19           0       0.555       0.325
  WS02006242           JUNCTION      0.00   129.75     0  03:18           0       0.543       0.404
  WS02006243           JUNCTION      0.00   129.96     0  03:18           0       0.534      -0.272
  WS02006245           JUNCTION      0.00   130.08     0  03:17           0       0.534       0.385
  WS02006247           JUNCTION      0.00   130.20     0  03:17           0       0.533       0.039
  WS02006248           JUNCTION      0.00   130.34     0  03:16           0       0.533      -0.105
  WS02006249           JUNCTION      0.00   130.67     0  03:15           0       0.534       0.227
  WS02006239           JUNCTION      0.00   129.34     0  03:20           0       0.571       0.509
  WS02006251           JUNCTION      0.08   132.08     0  03:15     0.00217       0.539      -0.093
  WS02006252           JUNCTION      0.00   125.96     0  03:15           0       0.486       0.100
  WS02006253           JUNCTION      0.34     9.46     0  02:35     0.00122      0.0515       0.289
  WS02006256           JUNCTION      0.00   300.00     0  00:00           0        1.71       0.134
  WS02004138           JUNCTION      0.00   285.00     0  00:11           0        5.22       0.086
  WS02004407           JUNCTION      0.00   250.54     0  03:26           0        2.71       0.117
  WS02006228           JUNCTION      0.00   251.44     0  03:20           0        2.83       0.314
  WS02006229           JUNCTION      0.00   251.49     0  03:20           0        2.84       0.242
  WS02006280           JUNCTION      0.00    57.96     0  02:37           0       0.448       0.017
  WS02006284           JUNCTION      0.10    57.96     0  02:37      0.0027       0.449       0.266
  WS02006287           JUNCTION      0.00    57.87     0  02:36           0       0.447       0.155
  WSF200               JUNCTION      0.00   249.19     0  03:31           0        2.64       0.064
  HS02004901           JUNCTION      2.77     2.77     0  02:23      0.0113      0.0114      18.198
  HS02004881           JUNCTION      1.12     9.19     0  02:35      0.0049      0.0504       0.114
  HS02004876           JUNCTION      1.81     8.20     0  02:33     0.00929       0.046       1.114
  HS02004870           JUNCTION      1.99     6.43     0  02:33     0.00924      0.0368       0.282
  HS02004862           JUNCTION      1.80     4.56     0  02:34      0.0147      0.0277       0.584
  HS02004856           JUNCTION      1.48     2.77     0  02:33     0.00694      0.0144      11.030
  HS02004852           JUNCTION      0.00     1.38     0  02:35           0     0.00753       0.579
  HS02004848           JUNCTION      3.30     3.30     0  02:35      0.0213      0.0213       0.185
  HS02004842           JUNCTION      0.00     4.47     0  00:03           0      0.0268      94.092
  HS02004837           JUNCTION      9.55    11.44     0  02:31       0.195       0.209       0.392
  HS02004830           JUNCTION      0.15    11.58     0  02:31     0.00423       0.199       0.621
  HS02004824           JUNCTION      3.76    15.31     0  02:36      0.0283       0.226       0.238
  HS02004817           JUNCTION      0.60    15.91     0  02:36      0.0169       0.243       7.367
  HS02004807           JUNCTION      3.74    19.35     0  02:35       0.017       0.243       1.767
  HS02004802           JUNCTION      0.00    19.34     0  02:37           0       0.239       1.727
  HS02004799           JUNCTION      2.88    32.88     0  02:33      0.0137       0.198       1.133
  HS02004792           JUNCTION     13.06    30.11     0  02:33      0.0653       0.185       0.228
  HS02004788           JUNCTION      5.59    17.88     0  02:35      0.0661       0.121       0.326
  HS02004785           JUNCTION      0.15    12.54     0  02:35     0.00423      0.0568       0.837
  HS02004777           JUNCTION      0.03    12.65     0  02:32    0.000846      0.0569       9.976
  HS02004770           JUNCTION     10.87    13.17     0  02:26       0.048      0.0576       5.685
  HS02004480           JUNCTION      0.00    38.61     0  02:35           0       0.224       0.272
  HS02004479           JUNCTION      0.00     5.80     0  02:36           0      0.0386       1.918
  HS02004478           JUNCTION      0.00    57.88     0  02:36           0       0.448       0.160
  YS02001745           JUNCTION     17.58    17.58     0  03:01       0.225       0.225       0.111
  YS02001748           JUNCTION      0.04    17.61     0  03:01     0.00127       0.226       0.703
  YS02001751           JUNCTION      0.01    33.14     0  04:45     0.00031       0.275       2.709
  YS02001754           JUNCTION      0.26   102.82     0  04:53     0.00733       0.425       3.957
  YS02001762           JUNCTION      0.00    29.85     0  03:16           0       0.252       7.921
  YS02001765           JUNCTION      0.00    37.22     0  04:17           0       0.247       8.913
  YS02001767           JUNCTION      0.54    35.03     0  04:50      0.0151       0.261      12.144
  YS02001770           JUNCTION     23.40    28.48     0  02:58       0.278       0.283       9.370
  YS02001774           JUNCTION      0.00    13.89     0  02:52           0      0.0509      69.593
  YS02001779           JUNCTION      0.01     7.44     0  04:34    0.000141      0.0252      57.586
  YS02001882           JUNCTION      0.00     1.27     0  02:13           0     0.00221     115.147
  YS02001884           JUNCTION      0.00     3.97     0  02:09           0     0.00925      69.253
  YS02001759           JUNCTION     23.02    53.18     0  03:15       0.262       0.483       4.512
  YS02001887           JUNCTION     31.09    31.09     0  03:01       0.333       0.336       1.810
  YS02001890           JUNCTION      0.00    30.75     0  03:00           0       0.322       2.100
  YS02001898           JUNCTION      0.00    30.50     0  03:02           0       0.313       0.470
  YS02001901           JUNCTION      0.00    30.60     0  03:03           0       0.313       1.418
  YS02001904           JUNCTION      0.00    30.47     0  03:04           0       0.313       1.328
  YS02001907           JUNCTION      0.00    55.99     0  03:05           0       0.682       3.052
  YS02001910           JUNCTION      0.00    25.72     0  03:01           0       0.379       2.354
  YS02001915           JUNCTION     16.00    25.71     0  03:01       0.197       0.383       0.844
  YS02001918           JUNCTION      0.00     9.86     0  03:05           0       0.186       0.320
  YS02001619           JUNCTION     15.47    15.47     0  03:01       0.193       0.193       1.679
  YS02001629           JUNCTION      0.00    21.28     0  03:01           0       0.158       8.628
  YS02001641           JUNCTION      0.00    45.53     0  03:02           0       0.313       5.991
  YS02001644           JUNCTION     16.67    61.22     0  03:02       0.216       0.504       4.505
  YS02001652           JUNCTION      0.00    31.74     0  04:49           0       0.243       6.643
  YS02001655           JUNCTION      0.15    21.83     0  03:01     0.00434       0.237       3.830
  YS02001920           JUNCTION      2.87     9.87     0  03:04      0.0809       0.188       0.758
  YS02001923           JUNCTION      0.04     7.00     0  03:03     0.00106       0.107       0.141
  YS02001926           JUNCTION      0.05     7.00     0  03:01     0.00147       0.107       1.056
  YS02001929           JUNCTION      6.96     6.96     0  03:01       0.105       0.105       0.129
  YS02001658           JUNCTION      0.00    21.68     0  03:01           0       0.233       0.521
  YS02001661           JUNCTION      0.00    21.69     0  03:01           0       0.234       0.269
  YS02001664           JUNCTION     21.69    21.69     0  03:01       0.234       0.234       0.049
  YS02001622           JUNCTION      0.00    16.92     0  03:02           0        0.19       5.528
  YS02001633           JUNCTION     17.02    42.02     0  03:03       0.224       0.357       7.894
  YS02001649           JUNCTION      0.00    81.92     0  03:12           0       0.678       4.951
  YS02001757           JUNCTION      0.00   175.56     0  04:09           0         1.4       6.716
  YS02001895           JUNCTION      0.00    30.58     0  03:01           0       0.315       0.782
  YS02001625           JUNCTION      0.00    20.50     0  03:02           0        0.18      15.108
  YS02163301           JUNCTION      0.00    24.77     0  03:03           0       0.152      13.590
  YS02163601           JUNCTION      0.11    44.56     0  03:02      0.0031       0.331       8.592
  YS02164001           JUNCTION      0.00    44.88     0  03:03           0       0.314       5.523
  YS02001647           JUNCTION      0.00    63.34     0  03:02           0       0.472       4.257
  YSB1154              JUNCTION      3.21     3.21     0  02:28      0.0165      0.0181       8.696
  YSB6556              JUNCTION      0.00     3.18     0  02:33           0      0.0192       6.925
  YSB1174              JUNCTION      3.14     3.14     0  02:22      0.0122      0.0133      10.677
  YSB1171              JUNCTION      0.00     5.86     0  02:34           0      0.0381      19.894
  YS02006553           JUNCTION      0.00    56.08     0  03:06           0        0.67       2.005
  YS02006561           JUNCTION      0.00    81.73     0  03:05           0       0.933       0.042
  YS02006556           JUNCTION      0.00    56.14     0  03:06           0       0.671       1.421
  YS02006558           JUNCTION     26.48    81.75     0  03:04       0.306       0.956       0.423
  YS02001783           JUNCTION      0.00    81.73     0  03:05           0       0.933       0.097
  YS02001784           JUNCTION      1.06    82.78     0  03:05      0.0299       0.962       0.164
  YS02001786           JUNCTION      0.06    82.82     0  03:05     0.00159       0.962       0.164
  YS02001788           JUNCTION      0.07    82.88     0  03:06       0.002       0.962       0.088
  YS02001790           JUNCTION      0.15    83.03     0  03:06     0.00437       0.966       0.114
  YS02001791           JUNCTION      0.00    83.03     0  03:06           0       0.965       0.054
  YS02001793           JUNCTION      0.00    83.03     0  03:06           0       0.964       0.030
  WS02004139           JUNCTION      0.32   290.40     0  00:00     0.00905        5.22       0.628
  WSC                  OUTFALL       0.00   445.13     0  04:21           0        8.39       0.000
  3                    OUTFALL       0.00   239.66     0  00:00           0       0.107       0.000
  4                    OUTFALL       0.00     0.00     0  00:00           0           0       0.000 ltr
  5                    OUTFALL       0.00     0.00     0  00:00           0           0       0.000 ltr
  JK-storage           STORAGE       0.00    83.03     0  03:07           0        1.11     -34.896
  CC-storage           STORAGE       0.00   125.96     0  03:15           0        1.16       1.152
  XR-storage           STORAGE     229.13   229.13     0  03:01        6.01        6.61      -0.000
  
  
  **********************
  Node Surcharge Summary
  **********************
  
  No nodes were surcharged.
  
  
  *********************
  Node Flooding Summary
  *********************
  
  Flooding refers to all water that overflows a node, whether it ponds or not.
  --------------------------------------------------------------------------
                                                             Total   Maximum
                                 Maximum   Time of Max       Flood    Ponded
                        Hours       Rate    Occurrence      Volume     Depth
  Node                 Flooded       LPS   days hr:min    10^6 ltr    Meters
  --------------------------------------------------------------------------
  XR-storage              4.05    127.13      0  03:47       0.464     0.000
  
  
  **********************
  Storage Volume Summary
  **********************
  
  --------------------------------------------------------------------------------------------------
                         Average     Avg  Evap Exfil       Maximum     Max    Time of Max    Maximum
                          Volume    Pcnt  Pcnt  Pcnt        Volume    Pcnt     Occurrence    Outflow
  Storage Unit           1000 m3    Full  Loss  Loss       1000 m3    Full    days hr:min        LPS
  --------------------------------------------------------------------------------------------------
  JK-storage               0.005       2     0     0         0.151      52       0  00:00     300.00
  CC-storage               0.122       1     0     0         0.662       4       0  07:50     125.96
  XR-storage               0.722      78     0     0         0.926     100       0  03:47     285.00
  
  
  ***********************
  Outfall Loading Summary
  ***********************
  
  -----------------------------------------------------------
                         Flow       Avg       Max       Total
                         Freq      Flow      Flow      Volume
  Outfall Node           Pcnt       LPS       LPS    10^6 ltr
  -----------------------------------------------------------
  WSC                   99.98    290.77    445.13       8.388
  3                     12.87     86.80    239.66       0.107
  4                      0.00      0.00      0.00       0.000
  5                      0.00      0.00      0.00       0.000
  -----------------------------------------------------------
  System                28.21    377.56    445.13       8.495
  
  
  ********************
  Link Flow Summary
  ********************
  
  -----------------------------------------------------------------------------
                                 Maximum  Time of Max   Maximum    Max/    Max/
                                  |Flow|   Occurrence   |Veloc|    Full    Full
  Link                 Type          LPS  days hr:min     m/sec    Flow   Depth
  -----------------------------------------------------------------------------
  WS02003066WSF200     CONDUIT    249.19     0  03:31      2.30    0.04    0.15
  WS02006287WS02006284 CONDUIT     57.87     0  02:37      1.02    0.03    0.12
  WS02006284WS02006280 CONDUIT     57.96     0  02:37      1.28    0.02    0.11
  WS02006280WS02006229 CONDUIT     57.96     0  02:37      2.04    0.01    0.08
  WS02006229WS02006228 CONDUIT    251.44     0  03:20      0.83    0.83    0.80
  WS02006256WS02006235 CONDUIT    166.25     0  00:01      2.58    1.76    1.00
  WS02006253WS02006251 CONDUIT      9.45     0  02:35      0.28    0.03    0.45
  WS02006252WS02006251 CONDUIT    125.99     0  03:15      1.64    0.46    0.59
  WS02006251WS02006249 CONDUIT    130.67     0  03:15      0.79    0.38    0.44
  WS02006249WS02006248 CONDUIT    130.34     0  03:16      0.88    0.71    0.41
  WS02006248WS02006247 CONDUIT    130.20     0  03:17      0.86    0.28    0.42
  WS02006247WS02006245 CONDUIT    130.08     0  03:17      0.82    1.03    0.44
  WS02006245WS02006243 CONDUIT    129.96     0  03:18      0.92    0.38    0.42
  WS02006243WS02006242 CONDUIT    129.75     0  03:18      0.73    0.28    0.50
  WS02006242WS02006240 CONDUIT    129.49     0  03:19      0.64    0.51    0.56
  WS02006240WS02006239 CONDUIT    129.34     0  03:20      0.60    0.41    0.55
  WS02006239WS02006238 CONDUIT    129.30     0  03:20      0.67    0.41    0.65
  WS02006238WS02006235 CONDUIT    129.31     0  03:20      1.25    0.29    0.69
  WS02006235WS02006234 CONDUIT    213.46     0  04:07      0.93    2.25    0.63
  WS02006234WS02006232 CONDUIT    213.21     0  04:08      1.13    0.43    0.71
  WS02006232WS02006231 CONDUIT    213.06     0  04:08      0.77    0.45    0.67
  WS02006231WS02006230 CONDUIT    212.93     0  04:08      1.12    3.23    0.50
  WS02006230WS02006229 CONDUIT    223.04     0  04:09      0.86    4.96    0.85
  WS02006228WS02006109 CONDUIT    251.38     0  03:20      0.74    1.10    0.83
  WS02006116WS02004401 CONDUIT    251.26     0  03:23      0.73    0.35    0.61
  WS02006115WS02006116 CONDUIT    251.75     0  03:23      0.80    0.32    0.52
  WS02006113WS02006111 CONDUIT    254.49     0  03:21      1.91    0.31    0.31
  WS02006112WS02006115 CONDUIT    252.44     0  03:22      0.48    0.15    0.64
  WS02006111WS02006112 CONDUIT    252.56     0  03:21      1.33    0.12    0.59
  WS02006110WS02006113 CONDUIT    252.54     0  03:21      0.77    0.23    0.62
  WS02006109WS02006110 CONDUIT    252.57     0  03:20      0.59    0.49    0.79
  WS02004411WS02004412 CONDUIT    249.40     0  03:29      0.64    0.35    0.50
  WS02004401WS02004402 CONDUIT    250.90     0  03:24      0.77    0.30    0.64
  WS02004413WS02003067 CONDUIT    249.20     0  03:30      0.73    0.11    0.45
  WS02004412WS02004413 CONDUIT    249.25     0  03:29      0.52    0.17    0.59
  WS02004410WS02004411 CONDUIT    249.67     0  03:28      0.68    0.34    0.47
  WS02004409WS02004410 CONDUIT    250.07     0  03:27      0.73    0.32    0.45
  WS02004407WS02004409 CONDUIT    250.53     0  03:26      1.16    0.09    0.32
  WS02004406WS02004407 CONDUIT    250.54     0  03:26      0.66    0.11    0.49
  WS02004405WS02004406 CONDUIT    250.58     0  03:25      0.66    0.49    0.77
  WS02004404WS02004405 CONDUIT    250.61     0  03:25      0.84    2.46    0.76
  WS02004403WS02004404 CONDUIT    250.52     0  03:25      0.74    0.18    0.72
  WS02004402WS02004403 CONDUIT    250.67     0  03:24      0.76    0.36    0.67
  WS02004139WS02001211 CONDUIT    285.32     0  00:56      0.81    0.36    0.51
  WS02004138WS02004139 CONDUIT    290.07     0  00:00      3.33    0.06    0.37
  WS02003067WS02003066 CONDUIT    249.19     0  03:31      0.78    0.08    0.32
  WS02001213WS02003059 CONDUIT    292.67     0  01:44      0.80    0.48    0.61
  WS02001212WS02001213 CONDUIT    292.67     0  01:47      1.19    0.45    0.35
  WS02001211WS02001212 CONDUIT    292.67     0  01:09      0.67    0.22    0.54
  WS02003072WS02003073 CONDUIT    443.44     0  04:20      1.33    0.96    0.34
  WS02003069WS02003072 CONDUIT    443.47     0  04:19      1.28    0.21    0.35
  WS02003060WS02003069 CONDUIT    443.18     0  04:19      1.55    0.17    0.30
  WS02003059WS02003060 CONDUIT    292.67     0  01:43      0.82    0.19    0.48
  HS02004901HS02004770 CONDUIT      2.46     0  02:31      0.02    0.01    0.20
  HS02004876HS02004881 CONDUIT      8.16     0  02:36      0.24    0.09    0.05
  HS02004870HS02004876 CONDUIT      6.43     0  02:34      0.17    0.00    0.05
  HS02004842HS02004848 CONDUIT      1.97     0  02:43      0.01    0.00    0.25
  HS02004837HS02004842 CONDUIT      4.47     0  00:03      0.41    0.00    0.26
  HS02004830HS02004837 CONDUIT     11.43     0  02:31      0.32    0.01    0.05
  HS02004824HS02004830 CONDUIT     11.58     0  02:33      0.37    0.02    0.05
  HS02004817HS02004824 CONDUIT     15.31     0  02:36      0.17    0.01    0.34
  HS02004770HS02004777 CONDUIT     12.62     0  02:32      0.08    0.02    0.22
  HS02004799HS02004480 CONDUIT     32.82     0  02:35      0.28    0.04    0.17
  HS02004792HS02004799 CONDUIT     30.10     0  02:34      0.33    0.02    0.13
  HS02004788HS02004792 CONDUIT     17.87     0  02:36      0.51    0.01    0.05
  HS02004785HS02004788 CONDUIT     12.48     0  02:36      0.26    0.09    0.07
  HS02004777HS02004785 CONDUIT     12.39     0  02:35      0.11    0.02    0.17
  HS02004480HS02004478 CONDUIT     38.57     0  02:35      0.53    0.16    0.10
  HS02004479HS02004480 CONDUIT      5.83     0  02:39      0.15    0.01    0.17
  HS02004862HS02004870 CONDUIT      4.54     0  02:36      0.26    0.00    0.03
  HS02004848HS02004852 CONDUIT      1.38     0  02:35      0.15    0.00    0.01
  HS02004856HS02004862 CONDUIT      2.77     0  02:35      0.18    0.00    0.02
  HS02004852HS02004856 CONDUIT      1.37     0  02:37      0.03    0.00    0.07
  HS02004802HS02004478 CONDUIT     19.37     0  02:39      0.16    0.02    0.17
  HS02004478WS02006287 CONDUIT     57.87     0  02:36      0.73    0.02    0.09
  HS02004817HS02004807 CONDUIT     15.94     0  02:40      0.05    0.01    0.42
  HS02004807HS02004802 CONDUIT     19.34     0  02:37      0.19    0.04    0.21
  YS02001759YS02001757 CONDUIT     52.34     0  03:05      0.12    0.04    0.93
  YS02001762YS02001759 CONDUIT     36.05     0  04:09      0.17    0.04    0.86
  YS02001765YS02001762 CONDUIT     29.85     0  03:16      0.22    0.03    0.82
  YS02001770YS02001767 CONDUIT     27.69     0  03:16      0.26    0.11    0.75
  YS02001774YS02001770 CONDUIT     13.89     0  02:52      0.13    0.01    0.77
  YS02001779YS02001774 CONDUIT      7.43     0  04:34      0.03    0.00    0.68
  YS02001649YS02001757 CONDUIT     78.82     0  03:13      0.13    0.05    0.91
  YS02001767YS02001765 CONDUIT     37.22     0  04:17      0.26    0.05    0.77
  YS02006561YS02001783 CONDUIT     81.73     0  03:05      1.26    0.04    0.19
  YS02001783YS02001784 CONDUIT     81.72     0  03:05      0.80    0.11    0.26
  YS02001784YS02001785 CONDUIT     82.76     0  03:05      0.80    0.19    0.26
  YS02001788YS02001790 CONDUIT     82.88     0  03:06      1.29    0.06    0.19
  YS02001790YS02001791 CONDUIT     83.03     0  03:06      1.47    0.09    0.17
  YS02001791YS02001793 CONDUIT     83.03     0  03:06      2.81    0.04    0.11
  YS02001910YS02001907 CONDUIT     25.66     0  03:04      0.49    0.01    0.54
  YS02001786YS02001788 CONDUIT     82.81     0  03:06      1.13    0.16    0.20
  YS02001915YS02001910 CONDUIT     25.72     0  03:01      0.44    0.01    0.33
  YS02001918YS02001915 CONDUIT      9.86     0  03:06      0.44    0.01    0.14
  YS02001923YS02001920 CONDUIT      7.00     0  03:04      0.21    0.00    0.09
  YS02001926YS02001923 CONDUIT      6.97     0  03:03      0.28    0.01    0.07
  YS02001929YS02001926 CONDUIT      6.95     0  03:01      0.28    0.00    0.07
  YS02001920YS02001918 CONDUIT      9.86     0  03:05      0.26    0.01    0.09
  YS02001629YS02163301 CONDUIT     24.77     0  03:03      0.06    0.03    0.71
  YS02001619YS02001622 CONDUIT     16.92     0  03:02      0.44    0.02    0.32
  YS02001622YS02001625 CONDUIT     20.50     0  03:02      0.15    0.01    0.48
  YS02001625YS02001629 CONDUIT     21.28     0  03:01      0.11    0.01    0.47
  YS02163301YS02001633 CONDUIT     25.16     0  03:03      0.06    0.02    0.75
  YS02163601YS02164001 CONDUIT     44.88     0  03:03      0.09    0.04    0.81
  YS02164001YS02001641 CONDUIT     45.53     0  03:02      0.09    0.06    0.79
  YS02001641YS02001644 CONDUIT     44.63     0  03:02      0.09    0.14    0.80
  YS02001647YS02001649 CONDUIT     59.02     0  03:02      0.13    0.03    0.74
  YS02006553YS02006556 CONDUIT     56.14     0  03:06      0.18    0.05    0.62
  YS02006556YS02006558 CONDUIT     56.17     0  03:07      0.10    0.04    0.65
  YSB6556YSB1171       CONDUIT      3.18     0  02:38      0.03    0.00    0.44
  YS02001907YS02006553 CONDUIT     56.08     0  03:06      0.09    0.07    0.71
  YS02006558YS02006561 CONDUIT     81.73     0  03:05      1.59    0.18    0.24
  YS02001633YS02163601 CONDUIT     44.45     0  03:02      0.09    0.05    0.80
  YS02001644YS02001647 CONDUIT     63.34     0  03:02      0.15    0.04    0.72
  YS02001745YS02001748 CONDUIT     17.56     0  03:01      0.94    0.01    0.06
  YS02001748YS02001751 CONDUIT     17.60     0  03:01      0.78    0.01    0.26
  YS02001751YS02001754 CONDUIT     43.32     0  04:54      0.72    0.02    0.47
  YS02001754YS02001757 CONDUIT     81.03     0  04:44      0.33    0.03    0.81
  YS02001882YS02001884 CONDUIT      1.27     0  02:13      0.06    0.00    0.26
  YS02001884YS02001887 CONDUIT      3.97     0  02:09      0.04    0.01    0.35
  YS02001890YS02001895 CONDUIT     30.58     0  03:01      0.14    0.01    0.33
  YS02001895YS02001898 CONDUIT     30.50     0  03:02      0.34    0.05    0.19
  YS02001898YS02001901 CONDUIT     30.60     0  03:03      0.18    0.02    0.27
  YS02001901YS02001904 CONDUIT     30.47     0  03:04      0.18    0.05    0.32
  YS02001904YS02001907 CONDUIT     30.52     0  03:04      0.08    0.01    0.48
  YS02001887YS02001890 CONDUIT     30.75     0  03:00      0.10    0.05    0.41
  YS02001652YS02001649 CONDUIT     30.42     0  04:18      0.22    0.02    0.75
  YS02001655YS02001652 CONDUIT     25.43     0  03:05      0.78    0.01    0.50
  YS02001658YS02001655 CONDUIT     21.67     0  03:01      0.88    0.01    0.24
  YS02001661YS02001658 CONDUIT     21.68     0  03:01      0.96    0.01    0.07
  YS02001664YS02001661 CONDUIT     21.69     0  03:01      0.55    0.01    0.10
  YSB1154YSB6556       CONDUIT      3.18     0  02:33      0.19    0.01    0.33
  YSB1174YSB1171       CONDUIT      3.00     0  02:24      0.02    0.00    0.45
  YSB1171HS02004479    CONDUIT      5.80     0  02:36      0.54    0.00    0.33
  HS02004881HS02006253 CONDUIT      9.19     0  02:35      0.94    0.00    0.01
  YS02001793JiankangQianchi CONDUIT     83.03     0  03:07      8.89    0.01    0.50
  YS02001757CaochengTiaoxuchi CONDUIT    125.96     0  03:15      0.43    0.06    0.61
  WSF200WS02003060     CONDUIT    249.19     0  03:31      1.44    0.06    0.22
  1                    CONDUIT    445.13     0  04:21      2.65    0.16    0.27
  2                    CONDUIT      0.00     0  00:00      0.00    0.00    0.00
  3                    CONDUIT    239.66     0  00:00      8.18    0.38    0.45
  4                    CONDUIT      0.00     0  00:00      0.00    0.00    0.00
  CC-Pump-1            PUMP       125.96     0  03:15              0.63
  CC-Pump-2            PUMP         0.00     0  00:00              0.00
  JK-Pump-1            PUMP       300.00     0  00:00              1.00
  JK-Pump-2            PUMP        62.65     0  04:02              0.21
  XR-Pump-1            PUMP        95.00     0  00:00              1.00
  XR-Pump-2            PUMP        95.00     0  00:00              1.00
  XR-Pump-3            PUMP        95.00     0  00:20              1.00
  XR-Pump-4            PUMP        95.00     0  00:00              1.00
  
  
  ***************************
  Flow Classification Summary
  ***************************
  
  -------------------------------------------------------------------------------------
                      Adjusted    ---------- Fraction of Time in Flow Class ---------- 
                       /Actual         Up    Down  Sub   Sup   Up    Down  Norm  Inlet 
  Conduit               Length    Dry  Dry   Dry   Crit  Crit  Crit  Crit  Ltd   Ctrl  
  -------------------------------------------------------------------------------------
  WS02003066WSF200        1.00   0.16  0.00  0.00  0.00  0.84  0.00  0.00  0.77  0.00
  WS02006287WS02006284    1.00   0.10  0.04  0.00  0.65  0.21  0.00  0.00  0.81  0.00
  WS02006284WS02006280    1.00   0.12  0.00  0.00  0.00  0.00  0.00  0.88  0.00  0.00
  WS02006280WS02006229    1.00   0.12  0.00  0.00  0.00  0.00  0.00  0.88  0.00  0.00
  WS02006229WS02006228    1.00   0.00  0.00  0.00  0.96  0.00  0.00  0.04  0.00  0.00
  WS02006256WS02006235    1.00   0.00  0.00  0.00  0.99  0.01  0.00  0.00  0.00  0.00
  WS02006253WS02006251    1.00   0.08  0.03  0.00  0.86  0.00  0.03  0.00  0.00  0.00
  WS02006252WS02006251    1.00   0.27  0.00  0.00  0.00  0.00  0.73  0.00  0.00  0.00
  WS02006251WS02006249    1.00   0.00  0.00  0.00  1.00  0.00  0.00  0.00  0.81  0.00
  WS02006249WS02006248    1.00   0.00  0.06  0.00  0.40  0.00  0.55  0.00  0.00  0.00
  WS02006248WS02006247    1.00   0.06  0.00  0.00  0.93  0.00  0.00  0.00  0.71  0.00
  WS02006247WS02006245    1.00   0.05  0.00  0.00  0.94  0.00  0.00  0.00  0.00  0.00
  WS02006245WS02006243    1.00   0.03  0.01  0.00  0.82  0.00  0.00  0.14  0.20  0.00
  WS02006243WS02006242    1.00   0.02  0.01  0.00  0.97  0.00  0.00  0.00  0.55  0.00
  WS02006242WS02006240    1.00   0.01  0.00  0.00  0.99  0.00  0.00  0.00  0.00  0.00
  WS02006240WS02006239    1.00   0.01  0.00  0.00  0.86  0.00  0.00  0.13  0.02  0.00
  WS02006239WS02006238    1.00   0.00  0.00  0.00  1.00  0.00  0.00  0.00  0.00  0.00
  WS02006238WS02006235    1.00   0.00  0.00  0.00  1.00  0.00  0.00  0.00  0.00  0.00
  WS02006235WS02006234    1.00   0.00  0.00  0.00  0.86  0.00  0.14  0.00  0.00  0.00
  WS02006234WS02006232    1.00   0.00  0.00  0.00  0.99  0.01  0.00  0.00  0.00  0.00
  WS02006232WS02006231    1.00   0.00  0.01  0.00  0.98  0.00  0.01  0.00  0.00  0.00
  WS02006231WS02006230    1.00   0.01  0.00  0.00  0.00  0.00  0.99  0.00  0.00  0.00
  WS02006230WS02006229    1.00   0.00  0.00  0.00  0.96  0.00  0.00  0.04  0.00  0.00
  WS02006228WS02006109    1.00   0.00  0.00  0.00  0.99  0.00  0.00  0.01  0.00  0.00
  WS02006116WS02004401    1.00   0.07  0.00  0.00  0.93  0.00  0.00  0.00  0.00  0.00
  WS02006115WS02006116    1.00   0.07  0.00  0.00  0.92  0.00  0.00  0.02  0.00  0.00
  WS02006113WS02006111    1.00   0.05  0.00  0.00  0.00  0.94  0.00  0.00  0.13  0.00
  WS02006112WS02006115    1.00   0.06  0.01  0.00  0.93  0.00  0.00  0.00  0.00  0.00
  WS02006111WS02006112    1.00   0.06  0.00  0.00  0.93  0.00  0.00  0.01  0.98  0.00
  WS02006110WS02006113    1.00   0.03  0.02  0.00  0.95  0.00  0.00  0.00  0.00  0.00
  WS02006109WS02006110    1.00   0.00  0.03  0.00  0.95  0.00  0.02  0.00  0.00  0.00
  WS02004411WS02004412    1.00   0.10  0.00  0.00  0.90  0.00  0.00  0.00  0.00  0.00
  WS02004401WS02004402    1.00   0.07  0.00  0.00  0.93  0.00  0.00  0.00  0.00  0.00
  WS02004413WS02003067    1.00   0.11  0.04  0.00  0.00  0.00  0.86  0.00  0.00  0.00
  WS02004412WS02004413    1.00   0.10  0.00  0.00  0.90  0.00  0.00  0.00  0.03  0.00
  WS02004410WS02004411    1.00   0.10  0.00  0.00  0.90  0.00  0.00  0.00  0.03  0.00
  WS02004409WS02004410    1.00   0.10  0.00  0.00  0.90  0.00  0.00  0.00  0.03  0.00
  WS02004407WS02004409    1.00   0.10  0.00  0.00  0.89  0.00  0.00  0.00  0.89  0.00
  WS02004406WS02004407    1.00   0.00  0.10  0.00  0.90  0.00  0.00  0.00  0.00  0.00
  WS02004405WS02004406    1.00   0.00  0.00  0.00  1.00  0.00  0.00  0.00  0.00  0.00
  WS02004404WS02004405    1.00   0.00  0.00  0.00  1.00  0.00  0.00  0.00  0.00  0.00
  WS02004403WS02004404    1.00   0.00  0.07  0.00  0.93  0.00  0.00  0.00  0.01  0.00
  WS02004402WS02004403    1.00   0.07  0.00  0.00  0.93  0.00  0.00  0.00  0.00  0.00
  WS02004139WS02001211    1.00   0.00  0.00  0.00  0.99  0.00  0.01  0.00  0.00  0.00
  WS02004138WS02004139    1.00   0.00  0.00  0.00  0.98  0.02  0.00  0.00  1.00  0.00
  WS02003067WS02003066    1.00   0.14  0.01  0.00  0.85  0.00  0.00  0.00  0.00  0.00
  WS02001213WS02003059    1.00   0.01  0.01  0.00  0.99  0.00  0.00  0.00  0.00  0.00
  WS02001212WS02001213    1.00   0.01  0.00  0.00  0.09  0.00  0.89  0.00  0.00  0.00
  WS02001211WS02001212    1.00   0.00  0.01  0.00  0.99  0.00  0.00  0.00  0.00  0.00
  WS02003072WS02003073    1.00   0.00  0.00  0.00  0.00  0.00  0.00  1.00  0.00  0.00
  WS02003069WS02003072    1.00   0.00  0.00  0.00  0.98  0.02  0.00  0.00  0.93  0.00
  WS02003060WS02003069    1.00   0.00  0.00  0.00  0.95  0.05  0.00  0.00  0.10  0.00
  WS02003059WS02003060    1.00   0.00  0.00  0.00  0.99  0.01  0.00  0.00  0.01  0.00
  HS02004901HS02004770    1.00   0.12  0.00  0.00  0.88  0.00  0.00  0.00  0.04  0.00
  HS02004876HS02004881    1.00   0.06  0.00  0.00  0.94  0.00  0.00  0.00  0.00  0.00
  HS02004870HS02004876    1.00   0.01  0.00  0.00  0.98  0.01  0.00  0.00  0.95  0.00
  HS02004842HS02004848    1.00   0.00  0.12  0.00  0.88  0.00  0.00  0.00  0.74  0.00
  HS02004837HS02004842    1.00   0.00  0.00  0.00  0.98  0.02  0.00  0.00  0.11  0.00
  HS02004830HS02004837    1.00   0.00  0.00  0.00  0.99  0.01  0.00  0.00  0.99  0.00
  HS02004824HS02004830    1.00   0.00  0.00  0.00  1.00  0.00  0.00  0.00  0.00  0.00
  HS02004817HS02004824    1.00   0.00  0.00  0.00  1.00  0.00  0.00  0.00  1.00  0.00
  HS02004770HS02004777    1.00   0.00  0.12  0.00  0.88  0.00  0.00  0.00  0.08  0.00
  HS02004799HS02004480    1.00   0.01  0.07  0.00  0.85  0.00  0.08  0.00  0.00  0.00
  HS02004792HS02004799    1.00   0.00  0.00  0.00  0.96  0.04  0.00  0.00  0.98  0.00
  HS02004788HS02004792    1.00   0.00  0.00  0.00  0.97  0.03  0.00  0.00  0.98  0.00
  HS02004785HS02004788    1.00   0.00  0.00  0.00  1.00  0.00  0.00  0.00  0.00  0.00
  HS02004777HS02004785    1.00   0.00  0.00  0.00  1.00  0.00  0.00  0.00  0.23  0.00
  HS02004480HS02004478    1.00   0.13  0.00  0.00  0.64  0.00  0.00  0.22  0.00  0.00
  HS02004479HS02004480    1.00   0.07  0.00  0.00  0.93  0.00  0.00  0.00  0.17  0.00
  HS02004862HS02004870    1.00   0.00  0.00  0.00  1.00  0.00  0.00  0.00  0.06  0.00
  HS02004848HS02004852    1.00   0.12  0.00  0.00  0.88  0.00  0.00  0.00  0.67  0.00
  HS02004856HS02004862    1.00   0.00  0.19  0.00  0.81  0.00  0.00  0.00  0.71  0.00
  HS02004852HS02004856    1.00   0.12  0.02  0.00  0.86  0.00  0.00  0.00  0.81  0.00
  HS02004802HS02004478    1.00   0.12  0.02  0.00  0.86  0.00  0.00  0.00  0.00  0.00
  HS02004478WS02006287    1.00   0.14  0.00  0.00  0.85  0.00  0.00  0.00  0.81  0.00
  HS02004817HS02004807    1.00   0.00  0.12  0.00  0.88  0.00  0.00  0.00  0.00  0.00
  HS02004807HS02004802    1.00   0.12  0.00  0.00  0.87  0.00  0.00  0.01  0.01  0.00
  YS02001759YS02001757    1.00   0.00  0.00  0.00  1.00  0.00  0.00  0.00  0.17  0.00
  YS02001762YS02001759    1.00   0.00  0.00  0.00  1.00  0.00  0.00  0.00  0.06  0.00
  YS02001765YS02001762    1.00   0.00  0.00  0.00  1.00  0.00  0.00  0.00  0.24  0.00
  YS02001770YS02001767    1.00   0.00  0.00  0.00  1.00  0.00  0.00  0.00  0.00  0.00
  YS02001774YS02001770    1.00   0.01  0.14  0.00  0.85  0.00  0.00  0.00  0.07  0.00
  YS02001779YS02001774    1.00   0.00  0.00  0.00  1.00  0.00  0.00  0.00  0.30  0.00
  YS02001649YS02001757    1.00   0.00  0.00  0.00  1.00  0.00  0.00  0.00  0.20  0.00
  YS02001767YS02001765    1.00   0.00  0.00  0.00  1.00  0.00  0.00  0.00  0.01  0.00
  YS02006561YS02001783    1.00   0.19  0.00  0.00  0.00  0.81  0.00  0.00  0.71  0.00
  YS02001783YS02001784    1.00   0.00  0.19  0.00  0.81  0.00  0.00  0.00  0.38  0.00
  YS02001784YS02001785    1.00   0.00  0.00  0.00  1.00  0.00  0.00  0.00  0.28  0.00
  YS02001788YS02001790    1.00   0.00  0.00  0.00  0.20  0.80  0.00  0.00  0.99  0.00
  YS02001790YS02001791    1.00   0.00  0.00  0.00  0.04  0.96  0.00  0.00  0.07  0.00
  YS02001791YS02001793    1.00   0.00  0.00  0.00  0.00  1.00  0.00  0.00  0.00  0.00
  YS02001910YS02001907    1.00   0.00  0.00  0.00  0.93  0.00  0.00  0.07  0.13  0.00
  YS02001786YS02001788    1.00   0.00  0.00  0.00  0.39  0.61  0.00  0.00  0.00  0.00
  YS02001915YS02001910    1.00   0.00  0.00  0.00  0.97  0.03  0.00  0.00  0.26  0.00
  YS02001918YS02001915    1.00   0.00  0.02  0.00  0.94  0.04  0.00  0.00  0.79  0.00
  YS02001923YS02001920    1.00   0.00  0.00  0.00  1.00  0.00  0.00  0.00  1.00  0.00
  YS02001926YS02001923    1.00   0.00  0.09  0.00  0.00  0.00  0.91  0.00  0.00  0.00
  YS02001929YS02001926    1.00   0.00  0.12  0.00  0.88  0.00  0.00  0.00  0.86  0.00
  YS02001920YS02001918    1.00   0.00  0.02  0.00  0.98  0.00  0.00  0.00  0.00  0.00
  YS02001629YS02163301    1.00   0.17  0.01  0.00  0.82  0.00  0.00  0.00  0.00  0.00
  YS02001619YS02001622    1.00   0.12  0.00  0.00  0.88  0.00  0.00  0.00  0.00  0.00
  YS02001622YS02001625    1.00   0.12  0.00  0.00  0.88  0.00  0.00  0.00  0.16  0.00
  YS02001625YS02001629    1.00   0.12  0.08  0.00  0.73  0.00  0.06  0.00  0.00  0.00
  YS02163301YS02001633    1.00   0.00  0.17  0.00  0.83  0.00  0.00  0.00  0.00  0.00
  YS02163601YS02164001    1.00   0.00  0.09  0.00  0.91  0.00  0.00  0.00  0.00  0.00
  YS02164001YS02001641    1.00   0.02  0.07  0.00  0.91  0.00  0.00  0.00  0.07  0.00
  YS02001641YS02001644    1.00   0.00  0.02  0.00  0.98  0.00  0.00  0.00  0.00  0.00
  YS02001647YS02001649    1.00   0.00  0.19  0.00  0.81  0.00  0.00  0.00  0.01  0.00
  YS02006553YS02006556    1.00   0.04  0.00  0.00  0.96  0.00  0.00  0.00  0.03  0.00
  YS02006556YS02006558    1.00   0.00  0.01  0.00  0.99  0.00  0.00  0.00  0.00  0.00
  YSB6556YSB1171          1.00   0.07  0.04  0.00  0.89  0.00  0.00  0.00  0.00  0.00
  YS02001907YS02006553    1.00   0.01  0.06  0.00  0.93  0.00  0.00  0.00  0.00  0.00
  YS02006558YS02006561    1.00   0.19  0.00  0.00  0.00  0.81  0.00  0.00  0.67  0.00
  YS02001633YS02163601    1.00   0.00  0.02  0.00  0.98  0.00  0.00  0.00  0.21  0.00
  YS02001644YS02001647    1.00   0.00  0.19  0.00  0.81  0.00  0.00  0.00  0.00  0.00
  YS02001745YS02001748    1.00   0.00  0.00  0.00  0.06  0.02  0.00  0.92  0.12  0.00
  YS02001748YS02001751    1.00   0.00  0.00  0.00  0.91  0.09  0.00  0.00  0.59  0.00
  YS02001751YS02001754    1.00   0.00  0.00  0.00  0.79  0.00  0.00  0.21  0.05  0.00
  YS02001754YS02001757    1.00   0.00  0.00  0.00  0.98  0.02  0.00  0.00  0.29  0.00
  YS02001882YS02001884    1.00   0.16  0.01  0.00  0.83  0.00  0.00  0.00  0.00  0.00
  YS02001884YS02001887    1.00   0.08  0.02  0.00  0.89  0.00  0.00  0.00  0.00  0.00
  YS02001890YS02001895    1.00   0.01  0.17  0.00  0.82  0.00  0.00  0.00  0.00  0.00
  YS02001895YS02001898    1.00   0.18  0.00  0.00  0.80  0.00  0.02  0.00  0.00  0.00
  YS02001898YS02001901    1.00   0.17  0.01  0.00  0.82  0.00  0.00  0.00  0.02  0.00
  YS02001901YS02001904    1.00   0.17  0.00  0.00  0.83  0.00  0.00  0.00  0.00  0.00
  YS02001904YS02001907    1.00   0.01  0.16  0.00  0.83  0.00  0.00  0.00  0.00  0.00
  YS02001887YS02001890    1.00   0.00  0.01  0.00  0.93  0.00  0.06  0.00  0.00  0.00
  YS02001652YS02001649    1.00   0.00  0.00  0.00  1.00  0.00  0.00  0.00  0.29  0.00
  YS02001655YS02001652    1.00   0.00  0.00  0.00  0.79  0.00  0.00  0.21  0.05  0.00
  YS02001658YS02001655    1.00   0.00  0.15  0.00  0.75  0.09  0.00  0.00  0.62  0.00
  YS02001661YS02001658    1.00   0.15  0.00  0.00  0.09  0.76  0.00  0.00  0.73  0.00
  YS02001664YS02001661    1.00   0.12  0.00  0.00  0.88  0.00  0.00  0.00  0.86  0.00
  YSB1154YSB6556          1.00   0.11  0.00  0.00  0.89  0.00  0.00  0.00  0.02  0.00
  YSB1174YSB1171          1.00   0.08  0.02  0.00  0.90  0.00  0.00  0.00  0.00  0.00
  YSB1171HS02004479       1.00   0.07  0.00  0.00  0.92  0.00  0.00  0.01  0.14  0.00
  HS02004881HS02006253    1.00   0.08  0.00  0.00  0.00  0.00  0.00  0.92  0.00  0.00
  YS02001793JiankangQianchi    1.00   0.00  0.01  0.00  0.09  0.91  0.00  0.00  0.06  0.00
  YS02001757CaochengTiaoxuchi    1.00   0.00  0.27  0.00  0.73  0.00  0.00  0.00  0.00  0.00
  WSF200WS02003060        1.00   0.00  0.16  0.00  0.54  0.31  0.00  0.00  0.65  0.00
  1                       1.00   0.00  0.00  0.00  0.00  1.00  0.00  0.00  0.17  0.00
  2                       1.00   1.00  0.00  0.00  0.00  0.00  0.00  0.00  0.00  0.00
  3                       1.00   0.87  0.00  0.00  0.00  0.13  0.00  0.00  0.49  0.00
  4                       1.00   1.00  0.00  0.00  0.00  0.00  0.00  0.00  0.00  0.00
  
  
  *************************
  Conduit Surcharge Summary
  *************************
  
  ----------------------------------------------------------------------------
                                                           Hours        Hours 
                         --------- Hours Full --------   Above Full   Capacity
  Conduit                Both Ends  Upstream  Dnstream   Normal Flow   Limited
  ----------------------------------------------------------------------------
  WS02006256WS02006235        2.85      2.85      7.83      1.26         0.01
  WS02006247WS02006245        0.01      0.01      0.01      0.26         0.01
  WS02006235WS02006234        0.01      0.01      0.01      2.38         0.01
  WS02006231WS02006230        0.01      0.01      0.01      4.14         0.01
  WS02006230WS02006229        0.01      0.01      0.01      5.32         0.01
  WS02006228WS02006109        0.01      0.01      0.01      0.64         0.01
  WS02004404WS02004405        0.01      0.01      0.01      3.21         0.01
  YS02001793JiankangQianchi        0.01      0.01      0.09      0.01         0.01
  
  
  ***************
  Pumping Summary
  ***************
  
  ---------------------------------------------------------------------------------------------------------
                                                  Min       Avg       Max     Total     Power    % Time Off
                        Percent   Number of      Flow      Flow      Flow    Volume     Usage    Pump Curve
  Pump                 Utilized   Start-Ups       LPS       LPS       LPS  10^6 ltr     Kw-hr    Low   High
  ---------------------------------------------------------------------------------------------------------
  CC-Pump-1               16.29           1      0.00    108.49    125.96     0.480      1.97    0.0  100.0
  CC-Pump-2                0.00           0      0.00      0.00      0.00     0.000      0.00    0.0    0.0
  JK-Pump-1               97.87           2      0.00     68.61    300.00     1.142     20.81    0.0    0.0
  JK-Pump-2               78.72           2      0.00     30.45     62.65     0.570     10.65    0.0    0.0
  XR-Pump-1                4.26           1      0.00     88.26     95.00     0.086      1.11    0.0    0.0
  XR-Pump-2               48.94           2      0.00     89.92     95.00     1.226     18.03    0.0    0.0
  XR-Pump-3               72.34           2      0.00     87.60     95.00     1.852     16.95    0.0    0.0
  XR-Pump-4               80.86           3      0.00     86.22     95.00     2.052     19.89    0.0    0.0
  

  Analysis begun on:  Tue Dec 21 16:22:18 2021
  Analysis ended on:  Tue Dec 21 16:22:19 2021
  Total elapsed time: 00:00:01