
  EPA STORM WATER MANAGEMENT MODEL - VERSION 5.1 (Build 5.3.0.dev0)
  --------------------------------------------------------------

  WARNING 04: minimum elevation drop used for Conduit WS02004404WS02004405
  WARNING 03: negative offset ignored for Link YS02001904YS02001907
  
  *********************************************************
  NOTE: The summary statistics displayed in this report are
  based on results found at every computational time step,  
  not just on results from each reporting time step.
  *********************************************************
  
  ****************
  Analysis Options
  ****************
  Flow Units ............... LPS
  Process Models:
    Rainfall/Runoff ........ YES
    RDII ................... NO
    Snowmelt ............... NO
    Groundwater ............ NO
    Flow Routing ........... YES
    Ponding Allowed ........ NO
    Water Quality .......... NO
  Infiltration Method ...... HORTON
  Flow Routing Method ...... DYNWAVE
  Surcharge Method ......... EXTRAN
  Starting Date ............ 08/28/2015 08:00:00
  Ending Date .............. 08/28/2015 15:50:00
  Antecedent Dry Days ...... 8.0
  Report Time Step ......... 00:01:00
  Wet Time Step ............ 00:01:00
  Dry Time Step ............ 00:01:00
  Routing Time Step ........ 5.00 sec
  Variable Time Step ....... YES
  Maximum Trials ........... 8
  Number of Threads ........ 4
  Head Tolerance ........... 0.001500 m
  
  
  **************************        Volume         Depth
  Runoff Quantity Continuity     hectare-m            mm
  **************************     ---------       -------
  Total Precipitation ......         1.214         2.657
  Evaporation Loss .........         0.000         0.000
  Infiltration Loss ........         0.291         0.637
  Surface Runoff ...........         0.245         0.536
  Final Storage ............         0.678         1.485
  Continuity Error (%) .....        -0.012
  
  
  **************************        Volume        Volume
  Flow Routing Continuity        hectare-m      10^6 ltr
  **************************     ---------     ---------
  Dry Weather Inflow .......         0.616         6.165
  Wet Weather Inflow .......         0.245         2.445
  Groundwater Inflow .......         0.000         0.000
  RDII Inflow ..............         0.000         0.000
  External Inflow ..........         0.102         1.024
  External Outflow .........         0.804         8.038
  Flooding Loss ............         0.031         0.315
  Evaporation Loss .........         0.000         0.000
  Exfiltration Loss ........         0.000         0.000
  Initial Stored Volume ....         0.076         0.761
  Final Stored Volume ......         0.254         2.535
  Continuity Error (%) .....        -4.744
  
  
  *************************
  Highest Continuity Errors
  *************************
  Node JK-storage (-53.58%)
  Node HS02004842 (53.54%)
  Node YS02001774 (50.91%)
  Node YS02001884 (44.73%)
  Node YSB1171 (19.52%)
  
  
  ***************************
  Time-Step Critical Elements
  ***************************
  Link WS02006252WS02006251 (42.59%)
  Link YS02001793JiankangQianchi (26.36%)
  Link WS02006280WS02006229 (10.46%)
  Link 3 (7.58%)
  Link WS02006238WS02006235 (1.92%)
  
  
  ********************************
  Highest Flow Instability Indexes
  ********************************
  Link WS02006113WS02006111 (36)
  Link WS02006111WS02006112 (9)
  Link YS02001754YS02001757 (6)
  Link YS02001649YS02001757 (6)
  Link YS02001652YS02001649 (6)
  
  
  *************************
  Routing Time Step Summary
  *************************
  Minimum Time Step           :     0.50 sec
  Average Time Step           :     2.50 sec
  Maximum Time Step           :     5.00 sec
  Percent in Steady State     :    -0.00
  Average Iterations per Step :     2.02
  Percent Not Converging      :     0.00
  
  
  ***************************
  Subcatchment Runoff Summary
  ***************************
  
  ------------------------------------------------------------------------------------------------------------------------------
                            Total      Total      Total      Total     Imperv       Perv      Total       Total     Peak  Runoff
                           Precip      Runon       Evap      Infil     Runoff     Runoff     Runoff      Runoff   Runoff   Coeff
  Subcatchment                 mm         mm         mm         mm         mm         mm         mm    10^6 ltr      LPS
  ------------------------------------------------------------------------------------------------------------------------------
  sub0                       2.66       0.00       0.00       0.19       1.21       0.00       1.21        0.00     0.23   0.454
  sub1                       2.66       0.00       0.00       0.29       1.12       0.00       1.12        0.01     1.30   0.420
  sub2                       2.66       0.00       0.00       0.98       0.78       0.00       0.78        0.01     1.16   0.292
  sub3                       2.66       0.00       0.00       0.98       0.75       0.00       0.75        0.02     2.43   0.282
  sub4                       2.66       0.00       0.00       0.29       1.02       0.00       1.02        0.02     2.74   0.382
  sub5                       2.66       0.00       0.00       0.19       1.17       0.00       1.17        0.01     2.31   0.439
  sub7                       2.66       0.00       0.00       0.24       1.16       0.00       1.16        0.00     0.79   0.438
  sub8                       2.66       0.00       0.00       0.24       1.16       0.00       1.16        0.01     1.42   0.435
  sub9                       2.66       0.00       0.00       0.24       1.16       0.00       1.16        0.01     1.05   0.435
  sub10                      2.66       0.00       0.00       0.21       1.16       0.00       1.16        0.01     2.30   0.436
  sub11                      2.66       0.00       0.00       0.21       1.17       0.00       1.17        0.01     2.66   0.441
  sub12                      2.66       0.00       0.00       0.35       1.12       0.00       1.12        0.01     2.19   0.423
  sub14                      2.66       0.00       0.00       0.24       1.15       0.00       1.15        0.01     2.06   0.434
  sub15                      2.66       0.00       0.00       0.80       0.89       0.00       0.89        0.02     2.80   0.333
  sub16                      2.66       0.00       0.00       0.88       0.86       0.00       0.86        0.01     1.94   0.325
  sub17                      2.66       0.00       0.00       0.85       0.87       0.00       0.87        0.01     1.57   0.329
  sub22                      2.66       0.00       0.00       1.14       0.73       0.00       0.73        0.05     9.06   0.274
  sub23                      2.66       0.00       0.00       0.98       0.81       0.00       0.81        0.04     7.70   0.303
  sub60                      2.66       0.00       0.00       0.32       0.56       0.00       0.56        0.17    13.03   0.212
  sub61                      2.66       0.00       0.00       0.45       0.65       0.00       0.65        0.20    17.11   0.244
  sub62                      2.66       0.00       0.00       0.21       0.68       0.00       0.68        0.21    17.28   0.256
  sub63                      2.66       0.00       0.00       0.77       0.59       0.00       0.59        0.18    16.18   0.223
  sub64                      2.66       0.00       0.00       0.40       0.54       0.00       0.54        0.16    12.33   0.202
  sub65                      2.66       0.00       0.00       0.35       0.54       0.00       0.54        0.17    12.47   0.203
  sub66                      2.66       0.00       0.00       0.77       0.48       0.00       0.48        0.15    11.48   0.180
  sub67                      2.66       0.00       0.00       0.21       0.80       0.00       0.80        0.25    22.88   0.301
  sub68                      2.66       0.00       0.00       0.37       0.70       0.00       0.70        0.22    19.08   0.264
  sub69                      2.66       0.00       0.00       0.40       0.82       0.00       0.82        0.19    19.34   0.307
  sub70                      2.66       0.83       0.00       1.19       0.82       0.00       0.82        0.19    12.35   0.234
  sub71                      2.66       0.00       0.00       0.21       0.63       0.00       0.63        0.15    11.87   0.238
  sub72                      2.66       0.00       0.00       0.19       0.39       0.00       0.39        0.08     5.14   0.146
  sub73                      2.66       0.79       0.00       1.17       0.74       0.00       0.74        0.17    10.77   0.214
  sub74                      2.66       0.00       0.00       1.99       0.25       0.00       0.25        0.10    10.79   0.095
  
  
  ******************
  Node Depth Summary
  ******************
  
  ---------------------------------------------------------------------------------
                                 Average  Maximum  Maximum  Time of Max    Reported
                                   Depth    Depth      HGL   Occurrence   Max Depth
  Node                 Type       Meters   Meters   Meters  days hr:min      Meters
  ---------------------------------------------------------------------------------
  WS02001211           JUNCTION     0.57     0.69     5.53     0  01:08        0.69
  WS02001212           JUNCTION     0.31     0.40     5.46     0  01:09        0.40
  WS02001213           JUNCTION     0.49     0.60     5.36     0  04:14        0.60
  WS02003069           JUNCTION     0.28     0.39     4.97     0  04:16        0.39
  WS02003072           JUNCTION     0.35     0.46     4.83     0  04:17        0.46
  WS02003073           JUNCTION     0.20     0.27     4.34     0  04:17        0.27
  WS02003060           JUNCTION     0.26     0.35     5.28     0  04:15        0.35
  WS02003066           JUNCTION     0.14     0.20     5.75     0  04:27        0.20
  WS02003059           JUNCTION     0.54     0.66     5.35     0  04:14        0.66
  WS02003067           JUNCTION     0.37     0.51     5.83     0  04:27        0.51
  WS02004401           JUNCTION     0.44     0.57     6.57     0  04:23        0.57
  WS02004402           JUNCTION     0.48     0.61     6.57     0  04:23        0.61
  WS02004403           JUNCTION     0.50     0.63     6.56     0  04:23        0.63
  WS02004404           JUNCTION     0.58     0.71     6.56     0  04:24        0.71
  WS02004406           JUNCTION     0.59     0.73     6.56     0  04:23        0.73
  WS02004409           JUNCTION     0.25     0.38     6.15     0  04:25        0.38
  WS02004410           JUNCTION     0.28     0.41     6.13     0  04:25        0.41
  WS02004411           JUNCTION     0.30     0.43     6.11     0  04:26        0.43
  WS02004412           JUNCTION     0.32     0.46     6.10     0  04:26        0.46
  WS02004413           JUNCTION     0.47     0.63     6.10     0  04:26        0.63
  WS02004405           JUNCTION     0.57     0.71     6.56     0  04:24        0.71
  WS02006109           JUNCTION     0.49     0.63     7.25     0  04:10        0.63
  WS02006110           JUNCTION     0.51     0.64     7.23     0  04:10        0.64
  WS02006111           JUNCTION     0.12     0.18     6.88     0  04:11        0.18
  WS02006112           JUNCTION     0.57     0.72     6.61     0  04:22        0.72
  WS02006113           JUNCTION     0.18     0.26     7.16     0  04:10        0.26
  WS02006115           JUNCTION     0.33     0.45     6.59     0  04:22        0.45
  WS02006116           JUNCTION     0.41     0.54     6.58     0  04:23        0.54
  WS02006230           JUNCTION     0.40     0.54     7.28     0  04:09        0.54
  WS02006231           JUNCTION     0.25     0.37     7.49     0  04:09        0.37
  WS02006232           JUNCTION     0.36     0.50     7.54     0  04:08        0.50
  WS02006234           JUNCTION     0.25     0.39     7.55     0  04:08        0.39
  WS02006235           JUNCTION     0.28     0.42     7.58     0  04:08        0.42
  WS02006238           JUNCTION     0.30     0.44     7.59     0  04:08        0.44
  WS02006240           JUNCTION     0.17     0.31     7.60     0  04:09        0.31
  WS02006242           JUNCTION     0.21     0.36     7.62     0  03:32        0.36
  WS02006243           JUNCTION     0.10     0.23     7.65     0  03:31        0.23
  WS02006245           JUNCTION     0.11     0.24     7.73     0  03:30        0.24
  WS02006247           JUNCTION     0.12     0.27     7.77     0  03:30        0.27
  WS02006248           JUNCTION     0.09     0.22     7.81     0  03:29        0.22
  WS02006249           JUNCTION     0.12     0.27     7.87     0  03:29        0.27
  WS02006239           JUNCTION     0.24     0.38     7.59     0  04:08        0.38
  WS02006251           JUNCTION     0.11     0.25     7.92     0  03:29        0.25
  WS02006252           JUNCTION     0.11     0.24     8.48     0  03:28        0.24
  WS02006253           JUNCTION     0.13     0.28     7.92     0  03:29        0.28
  WS02006256           JUNCTION     0.63     1.15     8.08     0  00:00        1.10
  WS02004138           JUNCTION     0.13     0.17     7.42     0  00:00        0.17
  WS02004407           JUNCTION     0.12     0.18     6.49     0  04:24        0.18
  WS02006228           JUNCTION     0.47     0.61     7.26     0  04:10        0.61
  WS02006229           JUNCTION     0.43     0.57     7.26     0  04:09        0.57
  WS02006280           JUNCTION     0.04     0.07     8.34     0  02:44        0.07
  WS02006284           JUNCTION     0.31     0.37     8.77     0  02:44        0.37
  WS02006287           JUNCTION     0.05     0.10     9.05     0  02:43        0.10
  WSF200               JUNCTION     0.11     0.17     5.40     0  04:27        0.17
  HS02004901           JUNCTION     0.08     0.14     9.96     0  02:43        0.14
  HS02004881           JUNCTION     0.00     0.01     9.04     0  02:41        0.01
  HS02004876           JUNCTION     0.02     0.05     9.08     0  02:41        0.05
  HS02004870           JUNCTION     0.01     0.01     9.30     0  02:39        0.01
  HS02004862           JUNCTION     0.01     0.02     9.40     0  02:42        0.02
  HS02004856           JUNCTION     0.06     0.08     9.51     0  02:40        0.08
  HS02004852           JUNCTION     0.00     0.01     9.52     0  02:42        0.01
  HS02004848           JUNCTION     0.00     0.01     9.61     0  02:36        0.01
  HS02004842           JUNCTION     0.30     0.34     9.61     0  02:37        0.34
  HS02004837           JUNCTION     0.02     0.03     9.61     0  02:36        0.03
  HS02004830           JUNCTION     0.03     0.04     9.51     0  02:37        0.04
  HS02004824           JUNCTION     0.01     0.02     9.42     0  02:41        0.02
  HS02004817           JUNCTION     0.38     0.45     9.29     0  02:43        0.45
  HS02004807           JUNCTION     0.09     0.12     9.29     0  02:43        0.12
  HS02004802           JUNCTION     0.12     0.16     9.29     0  02:43        0.16
  HS02004799           JUNCTION     0.08     0.13     9.34     0  02:41        0.13
  HS02004792           JUNCTION     0.01     0.03     9.56     0  02:40        0.03
  HS02004788           JUNCTION     0.01     0.03     9.92     0  02:43        0.03
  HS02004785           JUNCTION     0.02     0.05     9.96     0  02:44        0.05
  HS02004777           JUNCTION     0.11     0.16     9.96     0  02:43        0.16
  HS02004770           JUNCTION     0.08     0.13     9.96     0  02:42        0.13
  HS02004480           JUNCTION     0.04     0.09     9.33     0  02:42        0.09
  HS02004479           JUNCTION     0.08     0.13     9.33     0  02:42        0.13
  HS02004478           JUNCTION     0.04     0.06     9.29     0  02:43        0.06
  YS02001745           JUNCTION     0.03     0.05     7.57     0  03:01        0.05
  YS02001748           JUNCTION     0.04     0.10     7.17     0  07:49        0.10
  YS02001751           JUNCTION     0.13     0.29     7.17     0  07:49        0.29
  YS02001754           JUNCTION     0.34     0.57     7.18     0  07:49        0.57
  YS02001762           JUNCTION     0.50     0.77     7.17     0  07:49        0.77
  YS02001765           JUNCTION     0.46     0.72     7.17     0  07:48        0.72
  YS02001767           JUNCTION     0.43     0.68     7.17     0  07:49        0.68
  YS02001770           JUNCTION     0.43     0.68     7.17     0  07:50        0.68
  YS02001774           JUNCTION     0.48     0.75     7.17     0  07:49        0.75
  YS02001779           JUNCTION     0.27     0.49     7.17     0  07:50        0.49
  YS02001882           JUNCTION     0.14     0.21     6.93     0  03:04        0.21
  YS02001884           JUNCTION     0.23     0.31     6.93     0  03:04        0.31
  YS02001759           JUNCTION     0.53     0.81     7.17     0  07:49        0.81
  YS02001887           JUNCTION     0.30     0.39     6.93     0  03:04        0.39
  YS02001890           JUNCTION     0.33     0.42     6.93     0  03:04        0.42
  YS02001898           JUNCTION     0.12     0.18     6.92     0  03:05        0.18
  YS02001901           JUNCTION     0.22     0.31     6.92     0  03:06        0.31
  YS02001904           JUNCTION     0.21     0.29     6.92     0  03:06        0.29
  YS02001907           JUNCTION     0.51     0.63     6.92     0  03:05        0.63
  YS02001910           JUNCTION     0.31     0.41     6.92     0  03:05        0.41
  YS02001915           JUNCTION     0.14     0.20     6.92     0  03:06        0.20
  YS02001918           JUNCTION     0.04     0.05     7.11     0  03:07        0.05
  YS02001619           JUNCTION     0.10     0.24     7.17     0  07:49        0.24
  YS02001629           JUNCTION     0.38     0.62     7.17     0  07:50        0.62
  YS02001641           JUNCTION     0.47     0.73     7.17     0  07:49        0.73
  YS02001644           JUNCTION     0.48     0.74     7.17     0  07:49        0.74
  YS02001652           JUNCTION     0.34     0.58     7.17     0  07:49        0.58
  YS02001655           JUNCTION     0.16     0.32     7.17     0  07:49        0.32
  YS02001920           JUNCTION     0.12     0.13     7.14     0  03:06        0.13
  YS02001923           JUNCTION     0.03     0.04     7.30     0  03:04        0.04
  YS02001926           JUNCTION     0.07     0.09     7.54     0  03:04        0.09
  YS02001929           JUNCTION     0.03     0.04     7.73     0  03:01        0.04
  YS02001658           JUNCTION     0.04     0.06     7.20     0  03:01        0.06
  YS02001661           JUNCTION     0.10     0.13     7.53     0  03:01        0.13
  YS02001664           JUNCTION     0.03     0.05     7.98     0  03:01        0.05
  YS02001622           JUNCTION     0.12     0.27     7.17     0  07:49        0.27
  YS02001633           JUNCTION     0.46     0.72     7.17     0  07:49        0.72
  YS02001649           JUNCTION     0.51     0.78     7.17     0  07:49        0.78
  YS02001757           JUNCTION     0.62     0.91     7.17     0  07:49        0.91
  YS02001895           JUNCTION     0.12     0.18     6.93     0  03:05        0.18
  YS02001625           JUNCTION     0.35     0.57     7.17     0  07:50        0.57
  YS02163301           JUNCTION     0.41     0.65     7.17     0  07:49        0.65
  YS02163601           JUNCTION     0.51     0.77     7.17     0  07:49        0.77
  YS02164001           JUNCTION     0.46     0.71     7.17     0  07:50        0.71
  YS02001647           JUNCTION     0.33     0.56     7.17     0  07:49        0.56
  YSB1154              JUNCTION     0.20     0.27     9.33     0  02:42        0.27
  YSB6556              JUNCTION     0.11     0.16     9.33     0  02:42        0.16
  YSB1174              JUNCTION     0.16     0.22     9.33     0  02:42        0.22
  YSB1171              JUNCTION     0.34     0.43     9.33     0  02:42        0.43
  YS02006553           JUNCTION     0.51     0.63     6.92     0  03:05        0.63
  YS02006561           JUNCTION     0.06     0.10     6.76     0  03:06        0.10
  YS02006556           JUNCTION     0.49     0.61     6.92     0  03:06        0.61
  YS02006558           JUNCTION     0.53     0.65     6.92     0  03:06        0.65
  YS02001783           JUNCTION     0.10     0.16     6.30     0  03:06        0.16
  YS02001784           JUNCTION     0.13     0.20     6.26     0  03:07        0.20
  YS02001786           JUNCTION     0.12     0.17     6.20     0  03:07        0.17
  YS02001788           JUNCTION     0.08     0.12     6.09     0  03:08        0.12
  YS02001790           JUNCTION     0.10     0.14     5.79     0  03:08        0.14
  YS02001791           JUNCTION     0.06     0.09     5.56     0  03:08        0.09
  YS02001793           JUNCTION     0.04     0.06     4.90     0  03:08        0.06
  WS02004139           JUNCTION     0.51     0.63     5.54     0  01:11        0.63
  WSC                  OUTFALL      0.20     0.27     0.94     0  04:18        0.27
  3                    OUTFALL      0.01     0.13     6.13     0  00:00        0.10
  4                    OUTFALL      0.00     0.00     7.00     0  00:00        0.00
  5                    OUTFALL      0.00     0.00     5.00     0  00:00        0.00
  JK-storage           STORAGE      0.11     3.00     3.80     0  00:00        2.70
  CC-storage           STORAGE      0.03     0.17     7.17     0  07:50        0.17
  XR-storage           STORAGE      6.02     7.72     5.72     0  03:52        7.72
  
  
  *******************
  Node Inflow Summary
  *******************
  
  -------------------------------------------------------------------------------------------------
                                  Maximum  Maximum                  Lateral       Total        Flow
                                  Lateral    Total  Time of Max      Inflow      Inflow     Balance
                                   Inflow   Inflow   Occurrence      Volume      Volume       Error
  Node                 Type           LPS      LPS  days hr:min    10^6 ltr    10^6 ltr     Percent
  -------------------------------------------------------------------------------------------------
  WS02001211           JUNCTION      7.35   292.67     0  00:56       0.207        5.45       0.534
  WS02001212           JUNCTION      0.00   292.67     0  01:09           0        5.42       0.293
  WS02001213           JUNCTION      0.00   292.67     0  01:47           0        5.41       0.342
  WS02003069           JUNCTION      0.32   466.09     0  04:15     0.00902        7.96       0.216
  WS02003072           JUNCTION      0.00   465.84     0  04:16           0        7.94       0.296
  WS02003073           JUNCTION      1.82   467.52     0  04:17      0.0514        7.97       0.306
  WS02003060           JUNCTION     16.53   465.91     0  04:15       0.466        7.97       0.207
  WS02003066           JUNCTION      0.00   191.50     0  04:27           0        2.15       0.100
  WS02003059           JUNCTION      0.00   292.67     0  01:44           0        5.39       0.546
  WS02003067           JUNCTION      0.00   191.51     0  04:26           0        2.15       0.254
  WS02004401           JUNCTION      0.00   193.56     0  04:12           0        2.29       0.569
  WS02004402           JUNCTION      0.00   192.63     0  04:12           0        2.27       0.567
  WS02004403           JUNCTION      0.00   192.07     0  04:21           0        2.26       0.542
  WS02004404           JUNCTION      0.16   192.20     0  04:23     0.00457        2.25       0.438
  WS02004406           JUNCTION      0.00   192.22     0  04:23           0        2.23       1.090
  WS02004409           JUNCTION      0.00   192.09     0  04:24           0         2.2       0.274
  WS02004410           JUNCTION      0.00   191.99     0  04:24           0         2.2       0.354
  WS02004411           JUNCTION      0.00   191.83     0  04:25           0        2.19       0.405
  WS02004412           JUNCTION      0.00   191.70     0  04:26           0        2.18       0.494
  WS02004413           JUNCTION      0.00   191.61     0  04:26           0        2.17       0.817
  WS02004405           JUNCTION      0.04   192.25     0  04:23     0.00107        2.24       0.659
  WS02006109           JUNCTION      1.23   197.60     0  04:09      0.0347        2.35       0.610
  WS02006110           JUNCTION      0.00   197.09     0  04:10           0        2.33       0.485
  WS02006111           JUNCTION      0.00   197.50     0  04:10           0        2.32       0.080
  WS02006112           JUNCTION      1.57   196.63     0  04:11     0.00749        2.32       0.850
  WS02006113           JUNCTION      0.00   196.75     0  04:10           0        2.32       0.152
  WS02006115           JUNCTION      0.00   195.66     0  04:11           0        2.31       0.412
  WS02006116           JUNCTION      0.00   194.50     0  04:11           0         2.3       0.425
  WS02006230           JUNCTION     10.28   181.14     0  04:09        0.29        1.94       0.352
  WS02006231           JUNCTION      0.00   171.06     0  04:08           0        1.65       0.254
  WS02006232           JUNCTION      0.00   171.32     0  04:08           0        1.66       0.520
  WS02006234           JUNCTION      0.00   171.62     0  04:08           0        1.66       0.022
  WS02006235           JUNCTION      0.00   171.83     0  04:08           0         1.7       0.358
  WS02006238           JUNCTION      0.00    93.81     0  04:10           0       0.429       0.542
  WS02006240           JUNCTION      0.00    93.52     0  03:31           0       0.401       0.364
  WS02006242           JUNCTION      0.00    93.68     0  03:31           0       0.389       0.463
  WS02006243           JUNCTION      0.00    93.82     0  03:30           0        0.38      -0.143
  WS02006245           JUNCTION      0.00    93.87     0  03:30           0        0.38       0.460
  WS02006247           JUNCTION      0.00    93.93     0  03:29           0       0.379       0.067
  WS02006248           JUNCTION      0.00    93.98     0  03:29           0       0.379      -0.138
  WS02006249           JUNCTION      0.00    94.09     0  03:29           0        0.38       0.309
  WS02006239           JUNCTION      0.00    93.44     0  03:32           0       0.415       0.587
  WS02006251           JUNCTION      0.08    94.79     0  03:18     0.00217       0.385      -0.119
  WS02006252           JUNCTION      0.00    91.06     0  03:28           0       0.342       0.133
  WS02006253           JUNCTION      0.23     6.79     0  02:40    0.000977      0.0416       0.363
  WS02006256           JUNCTION      0.00   300.00     0  00:00           0        1.39       0.161
  WS02004138           JUNCTION      0.00   285.00     0  00:11           0        5.27       0.085
  WS02004407           JUNCTION      0.00   192.11     0  04:24           0        2.21       0.133
  WS02006228           JUNCTION      0.00   196.84     0  04:09           0        2.32       0.366
  WS02006229           JUNCTION      0.00   197.19     0  04:09           0        2.33       0.289
  WS02006280           JUNCTION      0.00    44.27     0  02:44           0       0.398       0.019
  WS02006284           JUNCTION      0.10    44.27     0  02:43      0.0027       0.399       0.298
  WS02006287           JUNCTION      0.00    44.18     0  02:43           0       0.397       0.174
  WSF200               JUNCTION      0.00   191.50     0  04:27           0        2.14       0.074
  HS02004901           JUNCTION      1.94     1.94     0  02:28     0.00903     0.00917      23.666
  HS02004881           JUNCTION      0.79     6.59     0  02:40     0.00392      0.0406       0.139
  HS02004876           JUNCTION      1.30     5.88     0  02:38     0.00742      0.0371       1.367
  HS02004870           JUNCTION      1.42     4.60     0  02:38     0.00739      0.0298       0.345
  HS02004862           JUNCTION      1.36     3.25     0  02:39      0.0129      0.0226       0.709
  HS02004856           JUNCTION      1.05     1.89     0  02:38     0.00555      0.0112      14.731
  HS02004852           JUNCTION      0.00     0.89     0  02:40           0     0.00564       0.735
  HS02004848           JUNCTION      2.43     2.43     0  02:40      0.0169      0.0169       0.223
  HS02004842           JUNCTION      0.00     4.47     0  00:03           0      0.0243     115.252
  HS02004837           JUNCTION      8.65    10.16     0  02:36       0.192       0.203       0.403
  HS02004830           JUNCTION      0.15    10.31     0  02:36     0.00423       0.193       0.640
  HS02004824           JUNCTION      2.79    13.09     0  02:40      0.0226       0.215       0.250
  HS02004817           JUNCTION      0.60    13.69     0  02:41      0.0169       0.231       7.759
  HS02004807           JUNCTION      2.66    16.16     0  02:40      0.0136       0.228       1.883
  HS02004802           JUNCTION      0.00    16.14     0  02:43           0       0.224       1.843
  HS02004799           JUNCTION      2.06    23.98     0  02:40       0.011       0.168       1.330
  HS02004792           JUNCTION      9.34    22.00     0  02:39      0.0538       0.158       0.267
  HS02004788           JUNCTION      4.47    13.23     0  02:42      0.0623       0.105       0.374
  HS02004785           JUNCTION      0.15     8.95     0  02:41     0.00423       0.045       1.051
  HS02004777           JUNCTION      0.03     8.99     0  02:37    0.000846      0.0452      12.897
  HS02004770           JUNCTION      7.70     9.34     0  02:32      0.0384      0.0458       7.251
  HS02004480           JUNCTION      0.00    28.07     0  02:41           0       0.189       0.308
  HS02004479           JUNCTION      0.00     4.15     0  02:43           0      0.0329       2.256
  HS02004478           JUNCTION      0.00    44.18     0  02:43           0       0.398       0.186
  YS02001745           JUNCTION     13.04    13.04     0  03:01       0.171       0.171       0.112
  YS02001748           JUNCTION      0.04    13.07     0  03:01     0.00127       0.172       0.359
  YS02001751           JUNCTION      0.01    13.90     0  05:55     0.00031       0.183       3.222
  YS02001754           JUNCTION      0.26    41.69     0  05:40     0.00733       0.232       6.262
  YS02001762           JUNCTION      0.00    24.33     0  03:20           0       0.177      10.742
  YS02001765           JUNCTION      0.00    22.58     0  03:19           0       0.173      11.915
  YS02001767           JUNCTION      0.54    20.68     0  03:20      0.0151       0.185      16.021
  YS02001770           JUNCTION     17.43    20.56     0  03:20       0.213       0.217      11.240
  YS02001774           JUNCTION      0.00    10.62     0  03:05           0      0.0374     103.724
  YS02001779           JUNCTION      0.01     5.91     0  03:05    0.000141      0.0149     113.933
  YS02001882           JUNCTION      0.00     1.11     0  02:08           0      0.0019     137.472
  YS02001884           JUNCTION      0.00     3.43     0  02:11           0     0.00804      80.925
  YS02001759           JUNCTION     17.15    38.76     0  03:19       0.201       0.347       5.945
  YS02001887           JUNCTION     23.33    23.33     0  03:01       0.259       0.262       2.252
  YS02001890           JUNCTION      0.00    22.92     0  03:01           0       0.249       2.644
  YS02001898           JUNCTION      0.00    22.70     0  03:03           0        0.24       0.563
  YS02001901           JUNCTION      0.00    22.74     0  03:04           0        0.24       1.772
  YS02001904           JUNCTION      0.00    22.64     0  03:05           0        0.24       1.661
  YS02001907           JUNCTION      0.00    42.25     0  03:06           0       0.537       3.847
  YS02001910           JUNCTION      0.00    19.78     0  03:03           0       0.307       2.846
  YS02001915           JUNCTION     11.89    19.80     0  03:01        0.15       0.309       0.970
  YS02001918           JUNCTION      0.00     8.06     0  03:06           0        0.16       0.336
  YS02001619           JUNCTION     11.48    11.48     0  03:01       0.146       0.146       1.567
  YS02001629           JUNCTION      0.00    15.19     0  03:15           0       0.118       9.738
  YS02001641           JUNCTION      0.00    33.75     0  03:15           0       0.227       7.686
  YS02001644           JUNCTION     12.37    45.64     0  03:15       0.164       0.369       5.689
  YS02001652           JUNCTION      0.00    19.16     0  03:18           0       0.178       8.055
  YS02001655           JUNCTION      0.15    16.31     0  03:01     0.00434       0.183       3.869
  YS02001920           JUNCTION      2.87     8.06     0  03:04      0.0809       0.161       0.832
  YS02001923           JUNCTION      0.04     5.19     0  03:04     0.00106      0.0805       0.160
  YS02001926           JUNCTION      0.05     5.19     0  03:01     0.00147      0.0804       1.220
  YS02001929           JUNCTION      5.14     5.14     0  03:01      0.0791      0.0791       0.144
  YS02001658           JUNCTION      0.00    16.16     0  03:01           0       0.179       0.072
  YS02001661           JUNCTION      0.00    16.17     0  03:01           0       0.179       0.331
  YS02001664           JUNCTION     16.18    16.18     0  03:01        0.18        0.18       0.056
  YS02001622           JUNCTION      0.00    11.64     0  03:15           0       0.144       5.424
  YS02001633           JUNCTION     12.67    30.09     0  03:25       0.171       0.267       9.777
  YS02001649           JUNCTION      0.00    60.15     0  03:15           0       0.485       6.491
  YS02001757           JUNCTION      0.00   100.40     0  03:23           0       0.954       9.523
  YS02001895           JUNCTION      0.00    22.74     0  03:01           0       0.242       0.920
  YS02001625           JUNCTION      0.00    13.63     0  03:26           0       0.137      17.525
  YS02163301           JUNCTION      0.00    17.30     0  03:25           0       0.113      16.915
  YS02163601           JUNCTION      0.11    31.25     0  03:14      0.0031       0.243      11.010
  YS02164001           JUNCTION      0.00    33.97     0  03:14           0       0.227       7.075
  YS02001647           JUNCTION      0.00    48.88     0  03:15           0       0.339       5.288
  YSB1154              JUNCTION      2.31     2.31     0  02:33      0.0132      0.0147      10.882
  YSB6556              JUNCTION      0.00     2.29     0  02:35           0      0.0158       8.503
  YSB1174              JUNCTION      2.19     2.19     0  02:28     0.00981      0.0109      13.344
  YSB1171              JUNCTION      0.00     4.20     0  02:38           0      0.0323      24.254
  YS02006553           JUNCTION      0.00    42.32     0  03:07           0       0.524       2.538
  YS02006561           JUNCTION      0.00    61.49     0  03:06           0       0.723       0.047
  YS02006556           JUNCTION      0.00    42.37     0  03:08           0       0.525       1.792
  YS02006558           JUNCTION     19.96    61.50     0  03:06        0.24       0.745       0.532
  YS02001783           JUNCTION      0.00    61.48     0  03:06           0       0.723       0.110
  YS02001784           JUNCTION      1.06    62.53     0  03:06      0.0299       0.752       0.187
  YS02001786           JUNCTION      0.06    62.57     0  03:07     0.00159       0.752       0.191
  YS02001788           JUNCTION      0.07    62.64     0  03:07       0.002       0.753       0.100
  YS02001790           JUNCTION      0.15    62.79     0  03:08     0.00437       0.756       0.130
  YS02001791           JUNCTION      0.00    62.79     0  03:08           0       0.755       0.061
  YS02001793           JUNCTION      0.00    62.79     0  03:08           0       0.755       0.034
  WS02004139           JUNCTION      0.32   290.40     0  00:00     0.00905        5.28       0.622
  WSC                  OUTFALL       0.00   467.19     0  04:18           0        7.95       0.000
  3                    OUTFALL       0.00   239.66     0  00:00           0      0.0904       0.000
  4                    OUTFALL       0.00     0.00     0  00:00           0           0       0.000 ltr
  5                    OUTFALL       0.00     0.00     0  00:00           0           0       0.000 ltr
  JK-storage           STORAGE       0.00    62.79     0  03:08           0       0.905     -34.887
  CC-storage           STORAGE       0.00    91.06     0  03:28           0       0.821       1.107
  XR-storage           STORAGE     221.55   221.55     0  03:01        5.91        6.51      -0.001
  
  
  **********************
  Node Surcharge Summary
  **********************
  
  No nodes were surcharged.
  
  
  *********************
  Node Flooding Summary
  *********************
  
  Flooding refers to all water that overflows a node, whether it ponds or not.
  --------------------------------------------------------------------------
                                                             Total   Maximum
                                 Maximum   Time of Max       Flood    Ponded
                        Hours       Rate    Occurrence      Volume     Depth
  Node                 Flooded       LPS   days hr:min    10^6 ltr    Meters
  --------------------------------------------------------------------------
  XR-storage              3.48    121.05      0  03:52       0.315     0.000
  
  
  **********************
  Storage Volume Summary
  **********************
  
  --------------------------------------------------------------------------------------------------
                         Average     Avg  Evap Exfil       Maximum     Max    Time of Max    Maximum
                          Volume    Pcnt  Pcnt  Pcnt        Volume    Pcnt     Occurrence    Outflow
  Storage Unit           1000 m3    Full  Loss  Loss       1000 m3    Full    days hr:min        LPS
  --------------------------------------------------------------------------------------------------
  JK-storage               0.005       2     0     0         0.151      52       0  00:00     300.00
  CC-storage               0.083       1     0     0         0.476       3       0  07:50      91.06
  XR-storage               0.723      78     0     0         0.926     100       0  03:52     285.00
  
  
  ***********************
  Outfall Loading Summary
  ***********************
  
  -----------------------------------------------------------
                         Flow       Avg       Max       Total
                         Freq      Flow      Flow      Volume
  Outfall Node           Pcnt       LPS       LPS    10^6 ltr
  -----------------------------------------------------------
  WSC                   99.98    267.47    467.19       7.947
  3                      7.64    140.34    239.66       0.090
  4                      0.00      0.00      0.00       0.000
  5                      0.00      0.00      0.00       0.000
  -----------------------------------------------------------
  System                26.90    407.81    467.19       8.038
  
  
  ********************
  Link Flow Summary
  ********************
  
  -----------------------------------------------------------------------------
                                 Maximum  Time of Max   Maximum    Max/    Max/
                                  |Flow|   Occurrence   |Veloc|    Full    Full
  Link                 Type          LPS  days hr:min     m/sec    Flow   Depth
  -----------------------------------------------------------------------------
  WS02003066WSF200     CONDUIT    191.50     0  04:27      2.17    0.03    0.13
  WS02006287WS02006284 CONDUIT     44.18     0  02:43      0.92    0.02    0.11
  WS02006284WS02006280 CONDUIT     44.27     0  02:44      1.18    0.02    0.09
  WS02006280WS02006229 CONDUIT     44.27     0  02:44      1.88    0.01    0.07
  WS02006229WS02006228 CONDUIT    196.84     0  04:09      0.83    0.65    0.72
  WS02006256WS02006235 CONDUIT    166.25     0  00:01      2.58    1.76    1.00
  WS02006253WS02006251 CONDUIT      6.89     0  04:18      0.25    0.02    0.37
  WS02006252WS02006251 CONDUIT     91.07     0  03:28      1.44    0.33    0.50
  WS02006251WS02006249 CONDUIT     94.09     0  03:29      0.72    0.27    0.38
  WS02006249WS02006248 CONDUIT     93.98     0  03:29      0.82    0.51    0.34
  WS02006248WS02006247 CONDUIT     93.93     0  03:29      0.79    0.20    0.35
  WS02006247WS02006245 CONDUIT     93.87     0  03:30      0.75    0.74    0.36
  WS02006245WS02006243 CONDUIT     93.82     0  03:30      0.89    0.28    0.33
  WS02006243WS02006242 CONDUIT     93.68     0  03:31      0.71    0.20    0.39
  WS02006242WS02006240 CONDUIT     93.52     0  03:31      0.64    0.37    0.47
  WS02006240WS02006239 CONDUIT     93.44     0  03:32      0.58    0.29    0.47
  WS02006239WS02006238 CONDUIT     93.81     0  04:10      0.67    0.30    0.58
  WS02006238WS02006235 CONDUIT     96.79     0  04:10      1.25    0.22    0.62
  WS02006235WS02006234 CONDUIT    171.62     0  04:08      0.93    1.81    0.56
  WS02006234WS02006232 CONDUIT    171.32     0  04:08      1.13    0.35    0.64
  WS02006232WS02006231 CONDUIT    171.06     0  04:08      0.69    0.36    0.61
  WS02006231WS02006230 CONDUIT    170.86     0  04:09      1.03    2.59    0.45
  WS02006230WS02006229 CONDUIT    180.86     0  04:09      0.86    4.03    0.76
  WS02006228WS02006109 CONDUIT    196.37     0  04:09      0.74    0.86    0.76
  WS02006116WS02004401 CONDUIT    193.56     0  04:12      0.73    0.27    0.55
  WS02006115WS02006116 CONDUIT    194.50     0  04:11      0.80    0.25    0.46
  WS02006113WS02006111 CONDUIT    197.50     0  04:10      1.76    0.24    0.27
  WS02006112WS02006115 CONDUIT    195.66     0  04:11      0.42    0.12    0.58
  WS02006111WS02006112 CONDUIT    196.50     0  04:11      1.33    0.09    0.54
  WS02006110WS02006113 CONDUIT    196.75     0  04:10      0.67    0.18    0.57
  WS02006109WS02006110 CONDUIT    197.09     0  04:10      0.53    0.38    0.73
  WS02004411WS02004412 CONDUIT    191.70     0  04:26      0.57    0.27    0.45
  WS02004401WS02004402 CONDUIT    192.63     0  04:12      0.77    0.23    0.59
  WS02004413WS02003067 CONDUIT    191.51     0  04:26      0.63    0.08    0.41
  WS02004412WS02004413 CONDUIT    191.61     0  04:26      0.44    0.13    0.54
  WS02004410WS02004411 CONDUIT    191.83     0  04:25      0.61    0.26    0.42
  WS02004409WS02004410 CONDUIT    191.99     0  04:24      0.66    0.25    0.40
  WS02004407WS02004409 CONDUIT    192.09     0  04:24      1.07    0.07    0.28
  WS02004406WS02004407 CONDUIT    192.11     0  04:24      0.56    0.09    0.45
  WS02004405WS02004406 CONDUIT    192.22     0  04:23      0.66    0.38    0.72
  WS02004404WS02004405 CONDUIT    192.21     0  04:23      0.84    1.88    0.71
  WS02004403WS02004404 CONDUIT    192.04     0  04:23      0.74    0.14    0.67
  WS02004402WS02004403 CONDUIT    192.07     0  04:21      0.76    0.28    0.62
  WS02004139WS02001211 CONDUIT    285.32     0  00:56      0.81    0.36    0.51
  WS02004138WS02004139 CONDUIT    290.07     0  00:00      3.33    0.06    0.37
  WS02003067WS02003066 CONDUIT    191.50     0  04:27      0.68    0.06    0.30
  WS02001213WS02003059 CONDUIT    292.67     0  01:44      0.80    0.48    0.62
  WS02001212WS02001213 CONDUIT    292.67     0  01:47      1.19    0.45    0.35
  WS02001211WS02001212 CONDUIT    292.67     0  01:09      0.67    0.22    0.54
  WS02003072WS02003073 CONDUIT    465.70     0  04:17      1.35    1.01    0.34
  WS02003069WS02003072 CONDUIT    465.84     0  04:16      1.30    0.22    0.35
  WS02003060WS02003069 CONDUIT    465.77     0  04:15      1.57    0.18    0.31
  WS02003059WS02003060 CONDUIT    292.67     0  01:44      0.82    0.19    0.50
  HS02004901HS02004770 CONDUIT      1.75     0  02:40      0.02    0.01    0.19
  HS02004876HS02004881 CONDUIT      5.85     0  02:41      0.21    0.06    0.04
  HS02004870HS02004876 CONDUIT      4.60     0  02:39      0.15    0.00    0.04
  HS02004842HS02004848 CONDUIT      1.55     0  02:46      0.01    0.00    0.25
  HS02004837HS02004842 CONDUIT      4.47     0  00:03      0.41    0.00    0.26
  HS02004830HS02004837 CONDUIT     10.16     0  02:36      0.30    0.01    0.05
  HS02004824HS02004830 CONDUIT     10.31     0  02:38      0.35    0.01    0.04
  HS02004817HS02004824 CONDUIT     13.09     0  02:41      0.17    0.01    0.33
  HS02004770HS02004777 CONDUIT      8.96     0  02:37      0.06    0.02    0.20
  HS02004799HS02004480 CONDUIT     23.94     0  02:41      0.23    0.03    0.15
  HS02004792HS02004799 CONDUIT     22.00     0  02:40      0.27    0.01    0.11
  HS02004788HS02004792 CONDUIT     13.22     0  02:43      0.45    0.01    0.04
  HS02004785HS02004788 CONDUIT      8.90     0  02:44      0.22    0.07    0.06
  HS02004777HS02004785 CONDUIT      8.80     0  02:41      0.08    0.01    0.15
  HS02004480HS02004478 CONDUIT     28.05     0  02:42      0.46    0.12    0.09
  HS02004479HS02004480 CONDUIT      4.17     0  02:44      0.15    0.00    0.15
  HS02004862HS02004870 CONDUIT      3.24     0  02:41      0.23    0.00    0.02
  HS02004848HS02004852 CONDUIT      0.89     0  02:40      0.13    0.00    0.01
  HS02004856HS02004862 CONDUIT      1.89     0  02:40      0.15    0.00    0.02
  HS02004852HS02004856 CONDUIT      0.88     0  02:42      0.02    0.00    0.06
  HS02004802HS02004478 CONDUIT     16.15     0  02:44      0.15    0.01    0.16
  HS02004478WS02006287 CONDUIT     44.18     0  02:43      0.64    0.01    0.08
  HS02004817HS02004807 CONDUIT     13.69     0  02:45      0.05    0.01    0.41
  HS02004807HS02004802 CONDUIT     16.14     0  02:43      0.19    0.03    0.20
  YS02001759YS02001757 CONDUIT     39.00     0  03:19      0.12    0.03    0.86
  YS02001762YS02001759 CONDUIT     23.55     0  03:19      0.17    0.03    0.79
  YS02001765YS02001762 CONDUIT     24.33     0  03:20      0.21    0.02    0.75
  YS02001770YS02001767 CONDUIT     20.15     0  03:20      0.24    0.08    0.68
  YS02001774YS02001770 CONDUIT     10.62     0  03:05      0.13    0.01    0.70
  YS02001779YS02001774 CONDUIT      5.91     0  03:05      0.03    0.00    0.62
  YS02001649YS02001757 CONDUIT     59.76     0  03:14      0.10    0.04    0.85
  YS02001767YS02001765 CONDUIT     22.58     0  03:19      0.26    0.03    0.70
  YS02006561YS02001783 CONDUIT     61.48     0  03:06      1.17    0.03    0.16
  YS02001783YS02001784 CONDUIT     61.47     0  03:06      0.73    0.08    0.22
  YS02001784YS02001785 CONDUIT     62.52     0  03:07      0.72    0.15    0.23
  YS02001788YS02001790 CONDUIT     62.63     0  03:08      1.18    0.05    0.16
  YS02001790YS02001791 CONDUIT     62.79     0  03:08      1.35    0.07    0.15
  YS02001791YS02001793 CONDUIT     62.79     0  03:08      2.51    0.03    0.10
  YS02001910YS02001907 CONDUIT     19.73     0  03:08      0.49    0.01    0.51
  YS02001786YS02001788 CONDUIT     62.57     0  03:07      1.03    0.12    0.18
  YS02001915YS02001910 CONDUIT     19.78     0  03:03      0.44    0.01    0.30
  YS02001918YS02001915 CONDUIT      8.05     0  03:07      0.44    0.00    0.12
  YS02001923YS02001920 CONDUIT      5.19     0  03:04      0.17    0.00    0.08
  YS02001926YS02001923 CONDUIT      5.15     0  03:04      0.24    0.01    0.06
  YS02001929YS02001926 CONDUIT      5.13     0  03:01      0.25    0.00    0.06
  YS02001920YS02001918 CONDUIT      8.06     0  03:06      0.24    0.01    0.09
  YS02001629YS02163301 CONDUIT     17.30     0  03:25      0.06    0.02    0.64
  YS02001619YS02001622 CONDUIT     11.64     0  03:15      0.40    0.02    0.25
  YS02001622YS02001625 CONDUIT     13.63     0  03:26      0.14    0.01    0.42
  YS02001625YS02001629 CONDUIT     15.19     0  03:15      0.09    0.01    0.41
  YS02163301YS02001633 CONDUIT     18.64     0  03:25      0.05    0.02    0.69
  YS02163601YS02164001 CONDUIT     33.97     0  03:14      0.07    0.03    0.74
  YS02164001YS02001641 CONDUIT     33.75     0  03:15      0.07    0.05    0.72
  YS02001641YS02001644 CONDUIT     34.02     0  03:15      0.08    0.11    0.74
  YS02001647YS02001649 CONDUIT     46.58     0  03:15      0.11    0.02    0.67
  YS02006553YS02006556 CONDUIT     42.37     0  03:08      0.18    0.04    0.60
  YS02006556YS02006558 CONDUIT     42.38     0  03:08      0.08    0.03    0.63
  YSB6556YSB1171       CONDUIT      2.26     0  02:45      0.03    0.00    0.42
  YS02001907YS02006553 CONDUIT     42.32     0  03:07      0.07    0.05    0.68
  YS02006558YS02006561 CONDUIT     61.49     0  03:06      1.46    0.14    0.21
  YS02001633YS02163601 CONDUIT     31.14     0  03:14      0.06    0.03    0.74
  YS02001644YS02001647 CONDUIT     48.88     0  03:15      0.12    0.03    0.65
  YS02001745YS02001748 CONDUIT     13.03     0  03:01      0.85    0.01    0.05
  YS02001748YS02001751 CONDUIT     13.07     0  03:01      0.72    0.01    0.19
  YS02001751YS02001754 CONDUIT     20.75     0  05:46      0.67    0.01    0.40
  YS02001754YS02001757 CONDUIT     35.10     0  05:29      0.33    0.01    0.74
  YS02001882YS02001884 CONDUIT      1.11     0  02:08      0.06    0.00    0.23
  YS02001884YS02001887 CONDUIT      3.43     0  02:11      0.04    0.00    0.33
  YS02001890YS02001895 CONDUIT     22.74     0  03:01      0.11    0.01    0.30
  YS02001895YS02001898 CONDUIT     22.70     0  03:03      0.31    0.04    0.17
  YS02001898YS02001901 CONDUIT     22.74     0  03:04      0.15    0.01    0.25
  YS02001901YS02001904 CONDUIT     22.64     0  03:05      0.18    0.04    0.30
  YS02001904YS02001907 CONDUIT     22.68     0  03:06      0.06    0.01    0.46
  YS02001887YS02001890 CONDUIT     22.92     0  03:01      0.10    0.04    0.38
  YS02001652YS02001649 CONDUIT     20.89     0  03:17      0.22    0.01    0.68
  YS02001655YS02001652 CONDUIT     19.16     0  03:18      0.72    0.01    0.43
  YS02001658YS02001655 CONDUIT     16.16     0  03:01      0.81    0.01    0.18
  YS02001661YS02001658 CONDUIT     16.16     0  03:01      0.88    0.01    0.06
  YS02001664YS02001661 CONDUIT     16.17     0  03:01      0.47    0.01    0.09
  YSB1154YSB6556       CONDUIT      2.29     0  02:35      0.19    0.00    0.31
  YSB1174YSB1171       CONDUIT      2.13     0  02:28      0.02    0.00    0.43
  YSB1171HS02004479    CONDUIT      4.15     0  02:43      0.54    0.00    0.31
  HS02004881HS02006253 CONDUIT      6.59     0  02:41      0.83    0.00    0.01
  YS02001793JiankangQianchi CONDUIT     62.79     0  03:08      8.16    0.00    0.50
  YS02001757CaochengTiaoxuchi CONDUIT     91.06     0  03:28      0.32    0.04    0.54
  WSF200WS02003060     CONDUIT    191.50     0  04:27      1.26    0.04    0.21
  1                    CONDUIT    467.19     0  04:18      2.69    0.16    0.27
  2                    CONDUIT      0.00     0  00:00      0.00    0.00    0.00
  3                    CONDUIT    239.66     0  00:00      8.18    0.38    0.45
  4                    CONDUIT      0.00     0  00:00      0.00    0.00    0.00
  CC-Pump-1            PUMP        91.06     0  03:28              0.46
  CC-Pump-2            PUMP         0.00     0  00:00              0.00
  JK-Pump-1            PUMP       300.00     0  00:00              1.00
  JK-Pump-2            PUMP        49.25     0  04:01              0.16
  XR-Pump-1            PUMP        95.00     0  00:00              1.00
  XR-Pump-2            PUMP        95.00     0  00:00              1.00
  XR-Pump-3            PUMP        95.00     0  00:20              1.00
  XR-Pump-4            PUMP        95.00     0  00:00              1.00
  
  
  ***************************
  Flow Classification Summary
  ***************************
  
  -------------------------------------------------------------------------------------
                      Adjusted    ---------- Fraction of Time in Flow Class ---------- 
                       /Actual         Up    Down  Sub   Sup   Up    Down  Norm  Inlet 
  Conduit               Length    Dry  Dry   Dry   Crit  Crit  Crit  Crit  Ltd   Ctrl  
  -------------------------------------------------------------------------------------
  WS02003066WSF200        1.00   0.17  0.00  0.00  0.00  0.83  0.00  0.00  0.77  0.00
  WS02006287WS02006284    1.00   0.11  0.04  0.00  0.73  0.11  0.00  0.00  0.81  0.00
  WS02006284WS02006280    1.00   0.13  0.00  0.00  0.00  0.00  0.00  0.87  0.00  0.00
  WS02006280WS02006229    1.00   0.13  0.00  0.00  0.00  0.00  0.00  0.87  0.00  0.00
  WS02006229WS02006228    1.00   0.00  0.00  0.00  0.96  0.00  0.00  0.04  0.00  0.00
  WS02006256WS02006235    1.00   0.00  0.00  0.00  0.99  0.01  0.00  0.00  0.00  0.00
  WS02006253WS02006251    1.00   0.09  0.03  0.00  0.85  0.00  0.03  0.00  0.00  0.00
  WS02006252WS02006251    1.00   0.30  0.00  0.00  0.00  0.00  0.70  0.00  0.00  0.00
  WS02006251WS02006249    1.00   0.00  0.00  0.00  1.00  0.00  0.00  0.00  0.82  0.00
  WS02006249WS02006248    1.00   0.00  0.06  0.00  0.36  0.00  0.57  0.00  0.00  0.00
  WS02006248WS02006247    1.00   0.07  0.00  0.00  0.93  0.00  0.00  0.00  0.72  0.00
  WS02006247WS02006245    1.00   0.06  0.00  0.00  0.94  0.00  0.00  0.00  0.00  0.00
  WS02006245WS02006243    1.00   0.04  0.01  0.00  0.80  0.00  0.00  0.15  0.06  0.00
  WS02006243WS02006242    1.00   0.02  0.01  0.00  0.97  0.00  0.00  0.00  0.72  0.00
  WS02006242WS02006240    1.00   0.01  0.00  0.00  0.99  0.00  0.00  0.00  0.00  0.00
  WS02006240WS02006239    1.00   0.01  0.00  0.00  0.84  0.00  0.00  0.15  0.02  0.00
  WS02006239WS02006238    1.00   0.00  0.00  0.00  1.00  0.00  0.00  0.00  0.00  0.00
  WS02006238WS02006235    1.00   0.00  0.00  0.00  1.00  0.00  0.00  0.00  0.00  0.00
  WS02006235WS02006234    1.00   0.00  0.00  0.00  0.84  0.00  0.16  0.00  0.00  0.00
  WS02006234WS02006232    1.00   0.00  0.00  0.00  0.99  0.01  0.00  0.00  0.00  0.00
  WS02006232WS02006231    1.00   0.00  0.01  0.00  0.98  0.00  0.01  0.00  0.00  0.00
  WS02006231WS02006230    1.00   0.01  0.00  0.00  0.00  0.00  0.99  0.00  0.00  0.00
  WS02006230WS02006229    1.00   0.00  0.00  0.00  0.96  0.00  0.00  0.04  0.00  0.00
  WS02006228WS02006109    1.00   0.00  0.00  0.00  0.99  0.00  0.00  0.01  0.00  0.00
  WS02006116WS02004401    1.00   0.07  0.00  0.00  0.93  0.00  0.00  0.00  0.00  0.00
  WS02006115WS02006116    1.00   0.07  0.00  0.00  0.91  0.00  0.00  0.02  0.00  0.00
  WS02006113WS02006111    1.00   0.06  0.00  0.00  0.00  0.94  0.00  0.00  0.09  0.00
  WS02006112WS02006115    1.00   0.07  0.01  0.00  0.92  0.00  0.00  0.00  0.00  0.00
  WS02006111WS02006112    1.00   0.07  0.00  0.00  0.93  0.00  0.00  0.01  0.98  0.00
  WS02006110WS02006113    1.00   0.03  0.03  0.00  0.94  0.00  0.00  0.00  0.00  0.00
  WS02006109WS02006110    1.00   0.00  0.03  0.00  0.95  0.00  0.02  0.00  0.00  0.00
  WS02004411WS02004412    1.00   0.11  0.00  0.00  0.89  0.00  0.00  0.00  0.00  0.00
  WS02004401WS02004402    1.00   0.08  0.00  0.00  0.92  0.00  0.00  0.00  0.00  0.00
  WS02004413WS02003067    1.00   0.12  0.04  0.00  0.00  0.00  0.84  0.00  0.00  0.00
  WS02004412WS02004413    1.00   0.12  0.00  0.00  0.88  0.00  0.00  0.00  0.03  0.00
  WS02004410WS02004411    1.00   0.11  0.00  0.00  0.89  0.00  0.00  0.00  0.03  0.00
  WS02004409WS02004410    1.00   0.11  0.00  0.00  0.89  0.00  0.00  0.00  0.03  0.00
  WS02004407WS02004409    1.00   0.11  0.00  0.00  0.88  0.01  0.00  0.00  0.89  0.00
  WS02004406WS02004407    1.00   0.00  0.11  0.00  0.89  0.00  0.00  0.00  0.00  0.00
  WS02004405WS02004406    1.00   0.00  0.00  0.00  1.00  0.00  0.00  0.00  0.00  0.00
  WS02004404WS02004405    1.00   0.00  0.00  0.00  1.00  0.00  0.00  0.00  0.00  0.00
  WS02004403WS02004404    1.00   0.00  0.08  0.00  0.92  0.00  0.00  0.00  0.01  0.00
  WS02004402WS02004403    1.00   0.08  0.00  0.00  0.92  0.00  0.00  0.00  0.00  0.00
  WS02004139WS02001211    1.00   0.00  0.00  0.00  0.99  0.00  0.01  0.00  0.00  0.00
  WS02004138WS02004139    1.00   0.00  0.00  0.00  0.97  0.02  0.00  0.00  1.00  0.00
  WS02003067WS02003066    1.00   0.16  0.01  0.00  0.83  0.00  0.00  0.00  0.00  0.00
  WS02001213WS02003059    1.00   0.01  0.01  0.00  0.98  0.00  0.00  0.00  0.00  0.00
  WS02001212WS02001213    1.00   0.01  0.00  0.00  0.00  0.00  0.99  0.00  0.00  0.00
  WS02001211WS02001212    1.00   0.00  0.01  0.00  0.99  0.00  0.00  0.00  0.00  0.00
  WS02003072WS02003073    1.00   0.00  0.00  0.00  0.00  0.00  0.00  1.00  0.00  0.00
  WS02003069WS02003072    1.00   0.00  0.00  0.00  0.98  0.02  0.00  0.00  0.92  0.00
  WS02003060WS02003069    1.00   0.00  0.00  0.00  0.95  0.05  0.00  0.00  0.14  0.00
  WS02003059WS02003060    1.00   0.00  0.00  0.00  0.99  0.01  0.00  0.00  0.01  0.00
  HS02004901HS02004770    1.00   0.13  0.00  0.00  0.87  0.00  0.00  0.00  0.04  0.00
  HS02004876HS02004881    1.00   0.07  0.00  0.00  0.93  0.00  0.00  0.00  0.00  0.00
  HS02004870HS02004876    1.00   0.01  0.00  0.00  0.98  0.01  0.00  0.00  0.95  0.00
  HS02004842HS02004848    1.00   0.00  0.14  0.00  0.86  0.00  0.00  0.00  0.77  0.00
  HS02004837HS02004842    1.00   0.00  0.00  0.00  0.98  0.02  0.00  0.00  0.11  0.00
  HS02004830HS02004837    1.00   0.00  0.00  0.00  0.99  0.01  0.00  0.00  0.99  0.00
  HS02004824HS02004830    1.00   0.00  0.00  0.00  1.00  0.00  0.00  0.00  0.00  0.00
  HS02004817HS02004824    1.00   0.00  0.00  0.00  1.00  0.00  0.00  0.00  1.00  0.00
  HS02004770HS02004777    1.00   0.00  0.13  0.00  0.87  0.00  0.00  0.00  0.08  0.00
  HS02004799HS02004480    1.00   0.01  0.07  0.00  0.83  0.00  0.09  0.00  0.00  0.00
  HS02004792HS02004799    1.00   0.00  0.00  0.00  0.96  0.04  0.00  0.00  0.98  0.00
  HS02004788HS02004792    1.00   0.00  0.00  0.00  0.97  0.03  0.00  0.00  0.98  0.00
  HS02004785HS02004788    1.00   0.00  0.00  0.00  1.00  0.00  0.00  0.00  0.00  0.00
  HS02004777HS02004785    1.00   0.00  0.00  0.00  1.00  0.00  0.00  0.00  0.23  0.00
  HS02004480HS02004478    1.00   0.15  0.00  0.00  0.71  0.00  0.00  0.14  0.00  0.00
  HS02004479HS02004480    1.00   0.08  0.00  0.00  0.92  0.00  0.00  0.00  0.17  0.00
  HS02004862HS02004870    1.00   0.00  0.00  0.00  1.00  0.00  0.00  0.00  0.06  0.00
  HS02004848HS02004852    1.00   0.14  0.00  0.00  0.86  0.00  0.00  0.00  0.66  0.00
  HS02004856HS02004862    1.00   0.00  0.22  0.00  0.78  0.00  0.00  0.00  0.71  0.00
  HS02004852HS02004856    1.00   0.13  0.03  0.00  0.84  0.00  0.00  0.00  0.81  0.00
  HS02004802HS02004478    1.00   0.13  0.02  0.00  0.85  0.00  0.00  0.00  0.00  0.00
  HS02004478WS02006287    1.00   0.16  0.00  0.00  0.84  0.00  0.00  0.00  0.81  0.00
  HS02004817HS02004807    1.00   0.00  0.13  0.00  0.87  0.00  0.00  0.00  0.00  0.00
  HS02004807HS02004802    1.00   0.13  0.00  0.00  0.86  0.00  0.00  0.01  0.01  0.00
  YS02001759YS02001757    1.00   0.00  0.00  0.00  1.00  0.00  0.00  0.00  0.17  0.00
  YS02001762YS02001759    1.00   0.00  0.00  0.00  1.00  0.00  0.00  0.00  0.06  0.00
  YS02001765YS02001762    1.00   0.00  0.00  0.00  1.00  0.00  0.00  0.00  0.25  0.00
  YS02001770YS02001767    1.00   0.00  0.00  0.00  1.00  0.00  0.00  0.00  0.00  0.00
  YS02001774YS02001770    1.00   0.01  0.16  0.00  0.83  0.00  0.00  0.00  0.07  0.00
  YS02001779YS02001774    1.00   0.00  0.00  0.00  1.00  0.00  0.00  0.00  0.31  0.00
  YS02001649YS02001757    1.00   0.00  0.00  0.00  1.00  0.00  0.00  0.00  0.20  0.00
  YS02001767YS02001765    1.00   0.00  0.00  0.00  1.00  0.00  0.00  0.00  0.01  0.00
  YS02006561YS02001783    1.00   0.21  0.00  0.00  0.00  0.78  0.00  0.00  0.70  0.00
  YS02001783YS02001784    1.00   0.00  0.22  0.00  0.78  0.00  0.00  0.00  0.51  0.00
  YS02001784YS02001785    1.00   0.00  0.00  0.00  1.00  0.00  0.00  0.00  0.28  0.00
  YS02001788YS02001790    1.00   0.00  0.00  0.00  0.22  0.77  0.00  0.00  1.00  0.00
  YS02001790YS02001791    1.00   0.00  0.00  0.00  0.05  0.95  0.00  0.00  0.00  0.00
  YS02001791YS02001793    1.00   0.00  0.00  0.00  0.00  1.00  0.00  0.00  0.00  0.00
  YS02001910YS02001907    1.00   0.00  0.00  0.00  0.92  0.00  0.00  0.07  0.13  0.00
  YS02001786YS02001788    1.00   0.00  0.00  0.00  0.51  0.49  0.00  0.00  0.00  0.00
  YS02001915YS02001910    1.00   0.00  0.00  0.00  0.97  0.03  0.00  0.00  0.27  0.00
  YS02001918YS02001915    1.00   0.00  0.02  0.00  0.94  0.04  0.00  0.00  0.79  0.00
  YS02001923YS02001920    1.00   0.00  0.00  0.00  1.00  0.00  0.00  0.00  1.00  0.00
  YS02001926YS02001923    1.00   0.00  0.10  0.00  0.00  0.00  0.90  0.00  0.00  0.00
  YS02001929YS02001926    1.00   0.00  0.13  0.00  0.87  0.00  0.00  0.00  0.86  0.00
  YS02001920YS02001918    1.00   0.00  0.02  0.00  0.98  0.00  0.00  0.00  0.00  0.00
  YS02001629YS02163301    1.00   0.19  0.01  0.00  0.80  0.00  0.00  0.00  0.00  0.00
  YS02001619YS02001622    1.00   0.13  0.00  0.00  0.87  0.00  0.00  0.00  0.00  0.00
  YS02001622YS02001625    1.00   0.13  0.00  0.00  0.87  0.00  0.00  0.00  0.17  0.00
  YS02001625YS02001629    1.00   0.13  0.10  0.00  0.70  0.00  0.07  0.00  0.00  0.00
  YS02163301YS02001633    1.00   0.00  0.19  0.00  0.81  0.00  0.00  0.00  0.00  0.00
  YS02163601YS02164001    1.00   0.00  0.10  0.00  0.90  0.00  0.00  0.00  0.00  0.00
  YS02164001YS02001641    1.00   0.03  0.08  0.00  0.90  0.00  0.00  0.00  0.07  0.00
  YS02001641YS02001644    1.00   0.00  0.02  0.00  0.98  0.00  0.00  0.00  0.00  0.00
  YS02001647YS02001649    1.00   0.00  0.21  0.00  0.78  0.00  0.00  0.00  0.01  0.00
  YS02006553YS02006556    1.00   0.04  0.00  0.00  0.96  0.00  0.00  0.00  0.03  0.00
  YS02006556YS02006558    1.00   0.00  0.01  0.00  0.99  0.00  0.00  0.00  0.00  0.00
  YSB6556YSB1171          1.00   0.08  0.04  0.00  0.87  0.00  0.00  0.00  0.00  0.00
  YS02001907YS02006553    1.00   0.01  0.06  0.00  0.93  0.00  0.00  0.00  0.00  0.00
  YS02006558YS02006561    1.00   0.21  0.00  0.00  0.00  0.78  0.00  0.00  0.53  0.00
  YS02001633YS02163601    1.00   0.00  0.02  0.00  0.98  0.00  0.00  0.00  0.21  0.00
  YS02001644YS02001647    1.00   0.00  0.22  0.00  0.78  0.00  0.00  0.00  0.00  0.00
  YS02001745YS02001748    1.00   0.00  0.00  0.00  0.00  0.00  0.00  1.00  0.00  0.00
  YS02001748YS02001751    1.00   0.00  0.00  0.00  0.90  0.10  0.00  0.00  0.67  0.00
  YS02001751YS02001754    1.00   0.00  0.00  0.00  0.76  0.00  0.00  0.24  0.06  0.00
  YS02001754YS02001757    1.00   0.00  0.00  0.00  0.98  0.02  0.00  0.00  0.30  0.00
  YS02001882YS02001884    1.00   0.18  0.01  0.00  0.81  0.00  0.00  0.00  0.00  0.00
  YS02001884YS02001887    1.00   0.09  0.03  0.00  0.88  0.00  0.00  0.00  0.00  0.00
  YS02001890YS02001895    1.00   0.01  0.19  0.00  0.80  0.00  0.00  0.00  0.00  0.00
  YS02001895YS02001898    1.00   0.20  0.00  0.00  0.78  0.00  0.02  0.00  0.00  0.00
  YS02001898YS02001901    1.00   0.18  0.02  0.00  0.80  0.00  0.00  0.00  0.02  0.00
  YS02001901YS02001904    1.00   0.18  0.00  0.00  0.82  0.00  0.00  0.00  0.00  0.00
  YS02001904YS02001907    1.00   0.01  0.17  0.00  0.82  0.00  0.00  0.00  0.00  0.00
  YS02001887YS02001890    1.00   0.00  0.01  0.00  0.92  0.00  0.07  0.00  0.00  0.00
  YS02001652YS02001649    1.00   0.00  0.00  0.00  1.00  0.00  0.00  0.00  0.30  0.00
  YS02001655YS02001652    1.00   0.00  0.00  0.00  0.76  0.00  0.00  0.23  0.06  0.00
  YS02001658YS02001655    1.00   0.00  0.17  0.00  0.73  0.10  0.00  0.00  0.78  0.00
  YS02001661YS02001658    1.00   0.17  0.00  0.00  0.00  0.83  0.00  0.00  0.73  0.00
  YS02001664YS02001661    1.00   0.13  0.00  0.00  0.87  0.00  0.00  0.00  0.86  0.00
  YSB1154YSB6556          1.00   0.13  0.00  0.00  0.87  0.00  0.00  0.00  0.02  0.00
  YSB1174YSB1171          1.00   0.09  0.02  0.00  0.89  0.00  0.00  0.00  0.00  0.00
  YSB1171HS02004479       1.00   0.08  0.00  0.00  0.91  0.00  0.00  0.01  0.14  0.00
  HS02004881HS02006253    1.00   0.09  0.00  0.00  0.00  0.00  0.00  0.91  0.00  0.00
  YS02001793JiankangQianchi    1.00   0.00  0.01  0.00  0.08  0.91  0.00  0.00  0.05  0.00
  YS02001757CaochengTiaoxuchi    1.00   0.00  0.30  0.00  0.70  0.00  0.00  0.00  0.00  0.00
  WSF200WS02003060        1.00   0.00  0.17  0.00  0.67  0.16  0.00  0.00  0.71  0.00
  1                       1.00   0.00  0.00  0.00  0.00  1.00  0.00  0.00  0.19  0.00
  2                       1.00   1.00  0.00  0.00  0.00  0.00  0.00  0.00  0.00  0.00
  3                       1.00   0.92  0.00  0.00  0.00  0.08  0.00  0.00  0.98  0.00
  4                       1.00   1.00  0.00  0.00  0.00  0.00  0.00  0.00  0.00  0.00
  
  
  *************************
  Conduit Surcharge Summary
  *************************
  
  ----------------------------------------------------------------------------
                                                           Hours        Hours 
                         --------- Hours Full --------   Above Full   Capacity
  Conduit                Both Ends  Upstream  Dnstream   Normal Flow   Limited
  ----------------------------------------------------------------------------
  WS02006256WS02006235        1.55      1.55      7.83      0.34         0.01
  WS02006235WS02006234        0.01      0.01      0.01      1.44         0.01
  WS02006231WS02006230        0.01      0.01      0.01      3.17         0.01
  WS02006230WS02006229        0.01      0.01      0.01      5.31         0.01
  WS02004404WS02004405        0.01      0.01      0.01      2.31         0.01
  WS02003072WS02003073        0.01      0.01      0.01      0.04         0.01
  YS02001793JiankangQianchi        0.01      0.01      0.09      0.01         0.01
  
  
  ***************
  Pumping Summary
  ***************
  
  ---------------------------------------------------------------------------------------------------------
                                                  Min       Avg       Max     Total     Power    % Time Off
                        Percent   Number of      Flow      Flow      Flow    Volume     Usage    Pump Curve
  Pump                 Utilized   Start-Ups       LPS       LPS       LPS  10^6 ltr     Kw-hr    Low   High
  ---------------------------------------------------------------------------------------------------------
  CC-Pump-1               15.70           1      0.00     78.75     91.06     0.336      1.35    0.0  100.0
  CC-Pump-2                0.00           0      0.00      0.00      0.00     0.000      0.00    0.0    0.0
  JK-Pump-1               97.87           2      0.00     56.41    300.00     0.928     16.61    0.0    0.0
  JK-Pump-2               78.72           2      0.00     25.58     49.25     0.462      8.51    0.0    0.0
  XR-Pump-1                8.52           2      0.00     67.00     95.00     0.143      1.38    0.0    0.0
  XR-Pump-2               48.93           2      0.00     88.72     95.00     1.226     18.29    0.0    0.0
  XR-Pump-3               72.33           2      0.00     88.05     95.00     1.852     17.00    0.0    0.0
  XR-Pump-4               80.85           3      0.00     87.63     95.00     2.052     19.96    0.0    0.0
  

  Analysis begun on:  Tue Dec 21 16:23:21 2021
  Analysis ended on:  Tue Dec 21 16:23:22 2021
  Total elapsed time: 00:00:01