
  EPA STORM WATER MANAGEMENT MODEL - VERSION 5.1 (Build 5.3.0.dev0)
  --------------------------------------------------------------

  WARNING 04: minimum elevation drop used for Conduit WS02004404WS02004405
  WARNING 03: negative offset ignored for Link YS02001904YS02001907
  
  *********************************************************
  NOTE: The summary statistics displayed in this report are
  based on results found at every computational time step,  
  not just on results from each reporting time step.
  *********************************************************
  
  ****************
  Analysis Options
  ****************
  Flow Units ............... LPS
  Process Models:
    Rainfall/Runoff ........ YES
    RDII ................... NO
    Snowmelt ............... NO
    Groundwater ............ NO
    Flow Routing ........... YES
    Ponding Allowed ........ NO
    Water Quality .......... NO
  Infiltration Method ...... HORTON
  Flow Routing Method ...... DYNWAVE
  Surcharge Method ......... EXTRAN
  Starting Date ............ 08/28/2015 08:00:00
  Ending Date .............. 08/28/2015 15:50:00
  Antecedent Dry Days ...... 8.0
  Report Time Step ......... 00:01:00
  Wet Time Step ............ 00:01:00
  Dry Time Step ............ 00:01:00
  Routing Time Step ........ 5.00 sec
  Variable Time Step ....... YES
  Maximum Trials ........... 8
  Number of Threads ........ 4
  Head Tolerance ........... 0.001500 m
  
  
  **************************        Volume         Depth
  Runoff Quantity Continuity     hectare-m            mm
  **************************     ---------       -------
  Total Precipitation ......         2.813         6.158
  Evaporation Loss .........         0.000         0.000
  Infiltration Loss ........         0.708         1.549
  Surface Runoff ...........         1.211         2.652
  Final Storage ............         0.894         1.957
  Continuity Error (%) .....        -0.018
  
  
  **************************        Volume        Volume
  Flow Routing Continuity        hectare-m      10^6 ltr
  **************************     ---------     ---------
  Dry Weather Inflow .......         0.616         6.165
  Wet Weather Inflow .......         1.211        12.107
  Groundwater Inflow .......         0.000         0.000
  RDII Inflow ..............         0.000         0.000
  External Inflow ..........         0.102         1.024
  External Outflow .........         1.441        14.406
  Flooding Loss ............         0.052         0.518
  Evaporation Loss .........         0.000         0.000
  Exfiltration Loss ........         0.000         0.000
  Initial Stored Volume ....         0.076         0.761
  Final Stored Volume ......         0.626         6.257
  Continuity Error (%) .....        -5.609
  
  
  *************************
  Highest Continuity Errors
  *************************
  Node JK-storage (-31.39%)
  Node HS02004842 (27.70%)
  Node YS02001884 (21.88%)
  Node YS02001774 (21.51%)
  Node YSB1171 (6.63%)
  
  
  ***************************
  Time-Step Critical Elements
  ***************************
  Link WS02006252WS02006251 (47.73%)
  Link 3 (42.93%)
  Link WS02006280WS02006229 (2.20%)
  Link YS02001793JiankangQianchi (2.03%)
  
  
  ********************************
  Highest Flow Instability Indexes
  ********************************
  Link WS02006113WS02006111 (53)
  Link WS02006111WS02006112 (19)
  Link YS02006558YS02006561 (18)
  Link YS02001779YS02001774 (11)
  Link YS02001774YS02001770 (11)
  
  
  *************************
  Routing Time Step Summary
  *************************
  Minimum Time Step           :     0.50 sec
  Average Time Step           :     1.11 sec
  Maximum Time Step           :     5.00 sec
  Percent in Steady State     :    -0.00
  Average Iterations per Step :     3.20
  Percent Not Converging      :    12.88
  
  
  ***************************
  Subcatchment Runoff Summary
  ***************************
  
  ------------------------------------------------------------------------------------------------------------------------------
                            Total      Total      Total      Total     Imperv       Perv      Total       Total     Peak  Runoff
                           Precip      Runon       Evap      Infil     Runoff     Runoff     Runoff      Runoff   Runoff   Coeff
  Subcatchment                 mm         mm         mm         mm         mm         mm         mm    10^6 ltr      LPS
  ------------------------------------------------------------------------------------------------------------------------------
  sub0                       6.16       0.00       0.00       0.43       4.46       0.00       4.46        0.00     1.63   0.725
  sub1                       6.16       0.00       0.00       0.68       4.23       0.00       4.23        0.03     8.33   0.686
  sub2                       6.16       0.00       0.00       2.28       2.97       0.00       2.97        0.03     7.33   0.483
  sub3                       6.16       0.00       0.00       2.28       2.94       0.00       2.94        0.07    14.99   0.477
  sub4                       6.16       0.00       0.00       0.68       4.09       0.00       4.09        0.09    16.74   0.664
  sub5                       6.16       0.00       0.00       0.43       4.42       0.00       4.42        0.05    14.82   0.717
  sub7                       6.16       0.00       0.00       0.55       4.35       0.00       4.35        0.01     5.28   0.706
  sub8                       6.16       0.00       0.00       0.55       4.34       0.00       4.34        0.03     9.28   0.705
  sub9                       6.16       0.00       0.00       0.55       4.34       0.00       4.34        0.02     6.88   0.704
  sub10                      6.16       0.00       0.00       0.49       4.37       0.00       4.37        0.05    14.82   0.710
  sub11                      6.16       0.00       0.00       0.49       4.39       0.00       4.39        0.05    17.48   0.713
  sub12                      6.16       0.00       0.00       0.80       4.17       0.00       4.17        0.04    14.98   0.677
  sub14                      6.16       0.00       0.00       0.55       4.34       0.00       4.34        0.04    13.43   0.704
  sub15                      6.16       0.00       0.00       1.85       3.33       0.00       3.33        0.06    18.19   0.541
  sub16                      6.16       0.00       0.00       2.03       3.21       0.00       3.21        0.03    13.11   0.521
  sub17                      6.16       0.00       0.00       1.97       3.25       0.00       3.25        0.03    10.58   0.528
  sub22                      6.16       0.00       0.00       2.65       2.72       0.00       2.72        0.17    59.90   0.442
  sub23                      6.16       0.00       0.00       2.28       3.01       0.00       3.01        0.14    51.08   0.489
  sub60                      6.16       0.00       0.00       0.74       2.96       0.00       2.96        0.90    83.90   0.481
  sub61                      6.16       0.00       0.00       1.05       3.16       0.00       3.16        0.97   105.37   0.513
  sub62                      6.16       0.00       0.00       0.49       3.39       0.00       3.39        1.04   107.63   0.550
  sub63                      6.16       0.00       0.00       1.79       2.81       0.00       2.81        0.85    98.45   0.456
  sub64                      6.16       0.00       0.00       0.92       2.83       0.00       2.83        0.86    79.70   0.459
  sub65                      6.16       0.00       0.00       0.80       2.86       0.00       2.86        0.88    80.88   0.465
  sub66                      6.16       0.00       0.00       1.79       2.47       0.00       2.47        0.76    73.04   0.401
  sub67                      6.16       0.00       0.00       0.49       3.72       0.00       3.72        1.15   138.48   0.603
  sub68                      6.16       0.00       0.00       0.86       3.36       0.00       3.36        1.03   116.57   0.545
  sub69                      6.16       0.00       0.00       0.92       3.61       0.00       3.61        0.84   116.22   0.587
  sub70                      6.16       3.69       0.00       3.35       4.46       0.00       4.46        1.02    93.64   0.453
  sub71                      6.16       0.00       0.00       0.49       3.24       0.00       3.24        0.77    75.09   0.527
  sub72                      6.16       0.00       0.00       0.43       2.30       0.00       2.30        0.47    35.50   0.374
  sub73                      6.16       4.34       0.00       3.57       4.56       0.00       4.56        1.07    80.50   0.434
  sub74                      6.16       0.00       0.00       4.62       1.09       0.00       1.09        0.44    64.97   0.177
  
  
  ******************
  Node Depth Summary
  ******************
  
  ---------------------------------------------------------------------------------
                                 Average  Maximum  Maximum  Time of Max    Reported
                                   Depth    Depth      HGL   Occurrence   Max Depth
  Node                 Type       Meters   Meters   Meters  days hr:min      Meters
  ---------------------------------------------------------------------------------
  WS02001211           JUNCTION     0.64     0.71     5.55     0  03:20        0.71
  WS02001212           JUNCTION     0.37     0.43     5.49     0  03:19        0.43
  WS02001213           JUNCTION     0.58     0.67     5.43     0  03:18        0.67
  WS02003069           JUNCTION     0.40     0.52     5.10     0  02:36        0.52
  WS02003072           JUNCTION     0.47     0.58     4.95     0  02:37        0.58
  WS02003073           JUNCTION     0.28     0.35     4.42     0  02:37        0.35
  WS02003060           JUNCTION     0.36     0.46     5.39     0  02:35        0.46
  WS02003066           JUNCTION     0.21     0.29     5.84     0  02:38        0.29
  WS02003059           JUNCTION     0.64     0.73     5.42     0  02:34        0.73
  WS02003067           JUNCTION     0.52     0.69     6.01     0  02:38        0.69
  WS02004401           JUNCTION     0.61     0.83     6.83     0  02:34        0.83
  WS02004402           JUNCTION     0.65     0.85     6.81     0  02:35        0.85
  WS02004403           JUNCTION     0.67     0.87     6.80     0  02:35        0.87
  WS02004404           JUNCTION     0.74     0.94     6.79     0  02:35        0.94
  WS02004406           JUNCTION     0.75     0.94     6.77     0  02:34        0.94
  WS02004409           JUNCTION     0.43     0.64     6.41     0  02:37        0.64
  WS02004410           JUNCTION     0.45     0.66     6.38     0  02:37        0.66
  WS02004411           JUNCTION     0.47     0.67     6.35     0  02:38        0.67
  WS02004412           JUNCTION     0.49     0.68     6.32     0  02:38        0.68
  WS02004413           JUNCTION     0.64     0.84     6.31     0  02:38        0.84
  WS02004405           JUNCTION     0.74     0.94     6.79     0  02:35        0.94
  WS02006109           JUNCTION     0.68     0.93     7.55     0  02:31        0.93
  WS02006110           JUNCTION     0.68     0.90     7.48     0  02:31        0.90
  WS02006111           JUNCTION     0.19     0.28     6.98     0  02:31        0.28
  WS02006112           JUNCTION     0.77     1.02     6.90     0  02:34        1.02
  WS02006113           JUNCTION     0.30     0.44     7.33     0  02:31        0.44
  WS02006115           JUNCTION     0.50     0.72     6.86     0  02:34        0.72
  WS02006116           JUNCTION     0.58     0.80     6.84     0  02:34        0.80
  WS02006230           JUNCTION     0.63     0.96     7.70     0  02:31        0.96
  WS02006231           JUNCTION     0.41     0.62     7.75     0  02:32        0.62
  WS02006232           JUNCTION     0.54     0.75     7.79     0  02:32        0.75
  WS02006234           JUNCTION     0.44     0.67     7.83     0  02:32        0.67
  WS02006235           JUNCTION     0.47     0.69     7.86     0  02:33        0.69
  WS02006238           JUNCTION     0.49     0.72     7.86     0  02:33        0.72
  WS02006240           JUNCTION     0.37     0.61     7.90     0  02:34        0.61
  WS02006242           JUNCTION     0.41     0.66     7.93     0  02:34        0.66
  WS02006243           JUNCTION     0.28     0.54     7.96     0  02:34        0.54
  WS02006245           JUNCTION     0.24     0.50     7.99     0  02:35        0.50
  WS02006247           JUNCTION     0.25     0.51     8.01     0  02:35        0.51
  WS02006248           JUNCTION     0.21     0.45     8.03     0  02:35        0.45
  WS02006249           JUNCTION     0.24     0.47     8.07     0  02:35        0.47
  WS02006239           JUNCTION     0.44     0.68     7.88     0  02:33        0.68
  WS02006251           JUNCTION     0.23     0.45     8.12     0  02:35        0.45
  WS02006252           JUNCTION     0.20     0.35     8.59     0  02:20        0.35
  WS02006253           JUNCTION     0.25     0.48     8.12     0  02:35        0.48
  WS02006256           JUNCTION     1.02     2.35     9.28     0  00:00        1.19
  WS02004138           JUNCTION     0.15     0.17     7.42     0  00:00        0.17
  WS02004407           JUNCTION     0.20     0.29     6.60     0  02:35        0.29
  WS02006228           JUNCTION     0.67     0.96     7.62     0  02:31        0.96
  WS02006229           JUNCTION     0.64     0.96     7.65     0  02:31        0.96
  WS02006280           JUNCTION     0.06     0.15     8.42     0  02:17        0.15
  WS02006284           JUNCTION     0.35     0.49     8.89     0  02:17        0.49
  WS02006287           JUNCTION     0.09     0.22     9.18     0  02:17        0.22
  WSF200               JUNCTION     0.19     0.30     5.53     0  02:38        0.30
  HS02004901           JUNCTION     0.11     0.24    10.06     0  02:15        0.24
  HS02004881           JUNCTION     0.01     0.03     9.05     0  02:16        0.03
  HS02004876           JUNCTION     0.04     0.10     9.13     0  02:14        0.10
  HS02004870           JUNCTION     0.01     0.04     9.33     0  02:17        0.04
  HS02004862           JUNCTION     0.02     0.05     9.43     0  02:18        0.05
  HS02004856           JUNCTION     0.07     0.11     9.53     0  02:17        0.11
  HS02004852           JUNCTION     0.01     0.03     9.54     0  02:18        0.03
  HS02004848           JUNCTION     0.01     0.03     9.63     0  02:16        0.03
  HS02004842           JUNCTION     0.33     0.36     9.63     0  02:16        0.36
  HS02004837           JUNCTION     0.03     0.05     9.63     0  02:16        0.05
  HS02004830           JUNCTION     0.04     0.06     9.53     0  02:17        0.06
  HS02004824           JUNCTION     0.02     0.04     9.44     0  02:20        0.04
  HS02004817           JUNCTION     0.43     0.53     9.38     0  02:17        0.53
  HS02004807           JUNCTION     0.11     0.21     9.38     0  02:17        0.21
  HS02004802           JUNCTION     0.15     0.25     9.37     0  02:17        0.25
  HS02004799           JUNCTION     0.11     0.27     9.48     0  02:15        0.27
  HS02004792           JUNCTION     0.03     0.10     9.63     0  02:15        0.10
  HS02004788           JUNCTION     0.02     0.08     9.98     0  02:16        0.08
  HS02004785           JUNCTION     0.04     0.14    10.04     0  02:15        0.14
  HS02004777           JUNCTION     0.14     0.26    10.06     0  02:15        0.26
  HS02004770           JUNCTION     0.11     0.23    10.06     0  02:15        0.23
  HS02004480           JUNCTION     0.07     0.21     9.45     0  02:16        0.21
  HS02004479           JUNCTION     0.11     0.25     9.45     0  02:16        0.25
  HS02004478           JUNCTION     0.05     0.13     9.36     0  02:17        0.13
  YS02001745           JUNCTION     0.26     0.81     8.33     0  07:50        0.81
  YS02001748           JUNCTION     0.60     1.25     8.33     0  07:50        1.25
  YS02001751           JUNCTION     0.78     1.45     8.33     0  07:50        1.45
  YS02001754           JUNCTION     1.02     1.72     8.33     0  07:50        1.72
  YS02001762           JUNCTION     1.22     1.93     8.33     0  07:50        1.93
  YS02001765           JUNCTION     1.17     1.88     8.33     0  07:50        1.88
  YS02001767           JUNCTION     1.13     1.84     8.33     0  07:50        1.84
  YS02001770           JUNCTION     1.13     1.84     8.33     0  07:50        1.84
  YS02001774           JUNCTION     1.20     1.91     8.33     0  07:50        1.91
  YS02001779           JUNCTION     0.95     1.64     8.33     0  07:50        1.64
  YS02001882           JUNCTION     0.31     0.48     7.19     0  02:51        0.48
  YS02001884           JUNCTION     0.40     0.58     7.19     0  02:49        0.58
  YS02001759           JUNCTION     1.25     1.97     8.33     0  07:50        1.97
  YS02001887           JUNCTION     0.48     0.66     7.19     0  02:52        0.66
  YS02001890           JUNCTION     0.51     0.69     7.19     0  02:50        0.69
  YS02001898           JUNCTION     0.28     0.44     7.18     0  02:53        0.44
  YS02001901           JUNCTION     0.40     0.57     7.18     0  02:50        0.57
  YS02001904           JUNCTION     0.37     0.54     7.17     0  02:53        0.54
  YS02001907           JUNCTION     0.70     0.89     7.18     0  02:53        0.89
  YS02001910           JUNCTION     0.49     0.67     7.18     0  02:52        0.67
  YS02001915           JUNCTION     0.29     0.46     7.17     0  02:51        0.46
  YS02001918           JUNCTION     0.08     0.11     7.17     0  02:52        0.11
  YS02001619           JUNCTION     0.74     1.40     8.33     0  07:50        1.40
  YS02001629           JUNCTION     1.08     1.78     8.33     0  07:50        1.78
  YS02001641           JUNCTION     1.19     1.89     8.33     0  07:50        1.89
  YS02001644           JUNCTION     1.19     1.90     8.33     0  07:50        1.90
  YS02001652           JUNCTION     1.04     1.74     8.33     0  07:50        1.74
  YS02001655           JUNCTION     0.80     1.48     8.33     0  07:50        1.48
  YS02001920           JUNCTION     0.18     0.21     7.22     0  03:02        0.21
  YS02001923           JUNCTION     0.07     0.09     7.35     0  03:02        0.09
  YS02001926           JUNCTION     0.15     0.18     7.63     0  03:01        0.18
  YS02001929           JUNCTION     0.07     0.09     7.78     0  03:01        0.09
  YS02001658           JUNCTION     0.54     1.19     8.33     0  07:50        1.19
  YS02001661           JUNCTION     0.35     0.93     8.33     0  07:50        0.93
  YS02001664           JUNCTION     0.11     0.41     8.33     0  07:50        0.41
  YS02001622           JUNCTION     0.76     1.43     8.33     0  07:50        1.43
  YS02001633           JUNCTION     1.17     1.88     8.33     0  07:50        1.88
  YS02001649           JUNCTION     1.23     1.94     8.33     0  07:50        1.94
  YS02001757           JUNCTION     1.35     2.07     8.33     0  07:50        2.07
  YS02001895           JUNCTION     0.27     0.44     7.19     0  02:52        0.44
  YS02001625           JUNCTION     1.04     1.73     8.33     0  07:50        1.73
  YS02163301           JUNCTION     1.11     1.82     8.33     0  07:50        1.82
  YS02163601           JUNCTION     1.22     1.93     8.33     0  07:50        1.93
  YS02164001           JUNCTION     1.17     1.87     8.33     0  07:50        1.87
  YS02001647           JUNCTION     1.02     1.72     8.33     0  07:50        1.72
  YSB1154              JUNCTION     0.24     0.40     9.45     0  02:16        0.40
  YSB6556              JUNCTION     0.14     0.29     9.45     0  02:16        0.29
  YSB1174              JUNCTION     0.20     0.35     9.45     0  02:16        0.34
  YSB1171              JUNCTION     0.39     0.55     9.45     0  02:16        0.55
  YS02006553           JUNCTION     0.71     0.89     7.17     0  02:53        0.89
  YS02006561           JUNCTION     0.15     0.24     6.90     0  02:53        0.24
  YS02006556           JUNCTION     0.68     0.86     7.17     0  02:53        0.86
  YS02006558           JUNCTION     0.72     0.90     7.17     0  02:54        0.90
  YS02001783           JUNCTION     0.29     0.65     6.79     0  02:54        0.61
  YS02001784           JUNCTION     0.33     0.71     6.78     0  02:55        0.71
  YS02001786           JUNCTION     0.30     0.71     6.74     0  02:54        0.71
  YS02001788           JUNCTION     0.25     0.74     6.72     0  02:54        0.71
  YS02001790           JUNCTION     0.35     1.96     7.60     0  02:52        1.02
  YS02001791           JUNCTION     0.34     2.23     7.70     0  02:51        1.16
  YS02001793           JUNCTION     0.48     2.44     7.27     0  02:49        1.77
  WS02004139           JUNCTION     0.58     0.65     5.56     0  03:20        0.65
  WSC                  OUTFALL      0.28     0.35     1.02     0  02:38        0.35
  3                    OUTFALL      0.08     0.23     6.23     0  00:00        0.19
  4                    OUTFALL      0.00     0.00     7.00     0  00:00        0.00
  5                    OUTFALL      0.00     0.00     5.00     0  00:00        0.00
  JK-storage           STORAGE      1.97     5.80     6.60     0  02:53        5.80
  CC-storage           STORAGE      0.60     1.33     8.33     0  07:50        1.33
  XR-storage           STORAGE      5.86     7.72     5.72     0  05:32        7.72
  
  
  *******************
  Node Inflow Summary
  *******************
  
  -------------------------------------------------------------------------------------------------
                                  Maximum  Maximum                  Lateral       Total        Flow
                                  Lateral    Total  Time of Max      Inflow      Inflow     Balance
                                   Inflow   Inflow   Occurrence      Volume      Volume       Error
  Node                 Type           LPS      LPS  days hr:min    10^6 ltr    10^6 ltr     Percent
  -------------------------------------------------------------------------------------------------
  WS02001211           JUNCTION      7.35   292.88     0  03:28       0.207        6.59       0.441
  WS02001212           JUNCTION      0.00   293.13     0  03:27           0        6.56       0.252
  WS02001213           JUNCTION      0.00   293.36     0  03:28           0        6.55       0.285
  WS02003069           JUNCTION      0.32   770.25     0  02:36     0.00902        12.2       0.167
  WS02003072           JUNCTION      0.00   770.18     0  02:36           0        12.2       0.222
  WS02003073           JUNCTION      1.82   771.99     0  02:37      0.0514        12.2       0.235
  WS02003060           JUNCTION     16.53   769.83     0  02:35       0.466        12.2       0.161
  WS02003066           JUNCTION      0.00   503.77     0  02:38           0        5.28       0.057
  WS02003059           JUNCTION      0.00   293.80     0  03:28           0        6.53       0.464
  WS02003067           JUNCTION      0.00   503.74     0  02:38           0        5.29       0.130
  WS02004401           JUNCTION      0.00   507.32     0  02:33           0        5.46       0.294
  WS02004402           JUNCTION      0.00   506.90     0  02:34           0        5.45       0.286
  WS02004403           JUNCTION      0.00   506.61     0  02:34           0        5.43       0.267
  WS02004404           JUNCTION      0.16   506.66     0  02:34     0.00457        5.42       0.208
  WS02004406           JUNCTION      0.00   506.63     0  02:34           0        5.39       0.512
  WS02004409           JUNCTION      0.00   506.54     0  02:35           0        5.36       0.183
  WS02004410           JUNCTION      0.00   505.38     0  02:36           0        5.35       0.219
  WS02004411           JUNCTION      0.00   504.57     0  02:36           0        5.34       0.236
  WS02004412           JUNCTION      0.00   504.08     0  02:37           0        5.33       0.270
  WS02004413           JUNCTION      0.00   503.83     0  02:38           0        5.31       0.423
  WS02004405           JUNCTION      0.04   506.65     0  02:34     0.00107        5.41       0.317
  WS02006109           JUNCTION      1.23   504.71     0  02:31      0.0347        5.53       0.331
  WS02006110           JUNCTION      0.00   504.71     0  02:31           0        5.51       0.267
  WS02006111           JUNCTION      0.00   522.39     0  02:31           0        5.49       0.047
  WS02006112           JUNCTION     10.58   513.04     0  02:31      0.0279        5.51       0.401
  WS02006113           JUNCTION      0.00   504.88     0  02:31           0        5.49       0.107
  WS02006115           JUNCTION      0.00   510.17     0  02:32           0        5.49       0.247
  WS02006116           JUNCTION      0.00   508.13     0  02:33           0        5.48       0.249
  WS02006230           JUNCTION     10.28   329.98     0  03:12        0.29        4.58       0.271
  WS02006231           JUNCTION      0.00   319.06     0  03:11           0        4.29       0.068
  WS02006232           JUNCTION      0.00   318.77     0  03:11           0         4.3       0.276
  WS02006234           JUNCTION      0.00   318.39     0  03:11           0         4.3       0.072
  WS02006235           JUNCTION      0.00   318.20     0  03:11           0        4.34       0.185
  WS02006238           JUNCTION      0.00   271.09     0  02:40           0        1.94       0.225
  WS02006240           JUNCTION      0.00   256.91     0  02:41           0        1.92       0.232
  WS02006242           JUNCTION      0.00   250.28     0  02:41           0        1.92       0.265
  WS02006243           JUNCTION      0.00   242.82     0  02:41           0        1.91      -0.077
  WS02006245           JUNCTION      0.00   238.93     0  02:41           0        1.91       0.096
  WS02006247           JUNCTION      0.00   237.75     0  02:26           0        1.92       0.007
  WS02006248           JUNCTION      0.00   239.00     0  02:25           0        1.91      -0.036
  WS02006249           JUNCTION      0.00   240.60     0  02:24           0        1.92       0.070
  WS02006239           JUNCTION      0.00   264.51     0  02:40           0        1.93       0.283
  WS02006251           JUNCTION      0.08   242.88     0  02:21     0.00217        1.92      -0.004
  WS02006252           JUNCTION      0.00   200.00     0  02:20           0        1.76       0.008
  WS02006253           JUNCTION      1.63    46.45     0  02:16     0.00361       0.158      -0.212
  WS02006256           JUNCTION      0.00   600.00     0  00:00           0        4.62       0.047
  WS02004138           JUNCTION      0.00   285.00     0  00:00           0        6.41       0.067
  WS02004407           JUNCTION      0.00   506.58     0  02:35           0        5.37       0.085
  WS02006228           JUNCTION      0.00   503.48     0  02:31           0         5.5       0.215
  WS02006229           JUNCTION      0.00   503.48     0  02:30           0        5.51       0.171
  WS02006280           JUNCTION      0.00   236.26     0  02:17           0       0.948       0.007
  WS02006284           JUNCTION      0.10   236.24     0  02:17      0.0027       0.949       0.111
  WS02006287           JUNCTION      0.00   236.12     0  02:17           0       0.947       0.077
  WSF200               JUNCTION      0.00   503.80     0  02:38           0        5.28       0.044
  HS02004901           JUNCTION     13.11    13.11     0  02:09      0.0336      0.0337       5.501
  HS02004881           JUNCTION      5.28    45.21     0  02:16      0.0146       0.155       0.212
  HS02004876           JUNCTION      8.33    40.29     0  02:17      0.0281        0.14       0.378
  HS02004870           JUNCTION      9.28    32.14     0  02:16      0.0277       0.112       0.095
  HS02004862           JUNCTION      7.53    23.50     0  02:17      0.0333      0.0849       0.199
  HS02004856           JUNCTION      6.88    16.03     0  02:16      0.0208       0.053       2.789
  HS02004852           JUNCTION      0.00     9.61     0  02:16           0      0.0322       0.159
  HS02004848           JUNCTION     14.99    14.99     0  02:19      0.0661      0.0661       0.066
  HS02004842           JUNCTION      0.00     5.94     0  02:29           0      0.0469      38.314
  HS02004837           JUNCTION     21.17    26.12     0  02:16       0.227       0.261       0.312
  HS02004830           JUNCTION      0.15    26.25     0  02:16     0.00423       0.252       0.492
  HS02004824           JUNCTION     16.79    42.82     0  02:20      0.0866       0.337       0.160
  HS02004817           JUNCTION      0.60    43.41     0  02:20      0.0169       0.353       4.950
  HS02004807           JUNCTION     17.48    59.27     0  02:18       0.051       0.388       1.102
  HS02004802           JUNCTION      0.00    59.63     0  02:20           0       0.383       1.072
  HS02004799           JUNCTION     13.43   150.92     0  02:15      0.0412       0.496       0.457
  HS02004792           JUNCTION     60.18   137.81     0  02:14        0.18       0.455       0.090
  HS02004788           JUNCTION     19.86    80.20     0  02:15       0.104       0.277       0.140
  HS02004785           JUNCTION      0.15    60.78     0  02:14     0.00423       0.174       0.279
  HS02004777           JUNCTION      0.03    61.24     0  02:13    0.000846       0.175       3.056
  HS02004770           JUNCTION     51.08    62.62     0  02:11       0.143       0.175       1.796
  HS02004480           JUNCTION      0.00   177.84     0  02:16           0        0.58       0.128
  HS02004479           JUNCTION      0.00    27.60     0  02:17           0       0.096       0.766
  HS02004478           JUNCTION      0.00   236.11     0  02:17           0       0.948       0.066
  YS02001745           JUNCTION     83.91   112.09     0  06:16       0.897       0.958       1.173
  YS02001748           JUNCTION      0.04   196.31     0  04:54     0.00127       0.997       2.388
  YS02001751           JUNCTION      0.01   215.89     0  04:54     0.00031       0.914       2.616
  YS02001754           JUNCTION      0.26   122.46     0  03:49     0.00733       0.851       2.715
  YS02001762           JUNCTION      0.00   123.11     0  02:36           0       0.975       2.204
  YS02001765           JUNCTION      0.00   141.26     0  02:36           0       0.977       2.525
  YS02001767           JUNCTION      0.54   123.28     0  02:47      0.0151       0.997       3.657
  YS02001770           JUNCTION    107.79   125.76     0  02:53        1.04        1.08       2.867
  YS02001774           JUNCTION      0.00    54.54     0  04:10           0       0.117      27.397
  YS02001779           JUNCTION      0.01    54.78     0  04:10    0.000141      0.0525      34.966
  YS02001882           JUNCTION      0.00     4.69     0  02:07           0     0.00577      42.213
  YS02001884           JUNCTION      0.00    13.57     0  02:07           0      0.0226      28.014
  YS02001759           JUNCTION    105.41   220.85     0  02:50       0.974        1.91       1.214
  YS02001887           JUNCTION    138.93   139.31     0  02:42        1.16        1.17       0.623
  YS02001890           JUNCTION      0.00   139.62     0  02:42           0        1.15       0.697
  YS02001898           JUNCTION      0.00   138.94     0  02:43           0        1.13       0.199
  YS02001901           JUNCTION      0.00   138.84     0  02:41           0        1.13       0.497
  YS02001904           JUNCTION      0.00   137.78     0  02:44           0        1.13       0.462
  YS02001907           JUNCTION      0.00   248.80     0  02:55           0        2.43       0.921
  YS02001910           JUNCTION      0.00   114.53     0  03:00           0        1.31       0.791
  YS02001915           JUNCTION     75.11   113.51     0  03:00       0.766        1.31       0.356
  YS02001918           JUNCTION      0.00    38.38     0  03:02           0       0.547       0.215
  YS02001619           JUNCTION     73.04    75.08     0  05:01       0.756        0.76       1.673
  YS02001629           JUNCTION      0.00   149.56     0  05:02           0       0.719       4.210
  YS02001641           JUNCTION      0.00   158.79     0  02:52           0        1.46       1.479
  YS02001644           JUNCTION     79.74   240.55     0  02:50       0.861        2.29       1.164
  YS02001652           JUNCTION      0.00   118.47     0  02:48           0        0.79       2.899
  YS02001655           JUNCTION      0.15   205.18     0  04:49     0.00434       0.849       2.905
  YS02001920           JUNCTION      2.87    38.38     0  03:02      0.0809       0.549       0.383
  YS02001923           JUNCTION      0.04    35.51     0  03:01     0.00106       0.469       0.068
  YS02001926           JUNCTION      0.05    35.54     0  03:01     0.00147        0.47       0.480
  YS02001929           JUNCTION     35.50    35.50     0  03:01       0.469       0.469       0.066
  YS02001658           JUNCTION      0.00   214.45     0  04:41           0        1.01       2.361
  YS02001661           JUNCTION      0.00   172.37     0  04:46           0           1       2.202
  YS02001664           JUNCTION     98.45    98.45     0  02:43        0.85        0.86       0.572
  YS02001622           JUNCTION      0.00   102.89     0  05:02           0       0.792       4.171
  YS02001633           JUNCTION     81.08   169.79     0  02:52       0.886        1.52       2.177
  YS02001649           JUNCTION      0.00   338.25     0  02:53           0        2.98       1.268
  YS02001757           JUNCTION      0.00   614.55     0  02:53           0        5.62       1.671
  YS02001895           JUNCTION      0.00   138.70     0  02:42           0        1.14       0.340
  YS02001625           JUNCTION      0.00   150.52     0  05:02           0       0.798       5.061
  YS02163301           JUNCTION      0.00   107.55     0  02:51           0       0.659       3.774
  YS02163601           JUNCTION      0.11   162.20     0  02:51      0.0031        1.48       2.096
  YS02164001           JUNCTION      0.00   163.77     0  02:51           0        1.46       1.426
  YS02001647           JUNCTION      0.00   245.08     0  02:52           0        2.25       1.221
  YSB1154              JUNCTION     14.82    14.82     0  02:14        0.05      0.0514       2.889
  YSB6556              JUNCTION      0.00    14.72     0  02:15           0      0.0524       2.435
  YSB1174              JUNCTION     14.98    14.98     0  02:09      0.0364      0.0374       3.553
  YSB1171              JUNCTION      0.00    27.52     0  02:15           0      0.0954       7.097
  YS02006553           JUNCTION      0.00   248.80     0  02:56           0        2.42       0.597
  YS02006561           JUNCTION      0.00   374.83     0  02:54           0        3.42       0.018
  YS02006556           JUNCTION      0.00   248.94     0  02:56           0        2.42       0.431
  YS02006558           JUNCTION    117.45   364.95     0  02:54        1.06        3.45       0.134
  YS02001783           JUNCTION      0.00   372.10     0  02:53           0        3.42       0.047
  YS02001784           JUNCTION      1.06   414.18     0  02:54      0.0299        3.45       0.075
  YS02001786           JUNCTION      0.06   400.02     0  02:55     0.00159        3.45       0.074
  YS02001788           JUNCTION      0.07   424.90     0  02:56       0.002        3.45       0.042
  YS02001790           JUNCTION      0.15   407.38     0  02:55     0.00437        3.45       0.044
  YS02001791           JUNCTION      0.00   407.65     0  02:55           0        3.45       0.019
  YS02001793           JUNCTION      0.00   432.81     0  02:48           0        3.45       0.008
  WS02004139           JUNCTION      0.32   290.33     0  00:00     0.00905        6.42       0.509
  WSC                  OUTFALL       0.00   771.99     0  02:38           0        12.2       0.000
  3                    OUTFALL       0.00   597.65     0  00:00           0         2.2       0.000
  4                    OUTFALL       0.00     0.00     0  00:00           0           0       0.000 ltr
  5                    OUTFALL       0.00     0.00     0  00:00           0           0       0.000 ltr
  JK-storage           STORAGE       0.00   615.56     0  02:48           0         3.6     -23.889
  CC-storage           STORAGE       0.00   613.75     0  02:58           0        5.53       1.177
  XR-storage           STORAGE     335.95   335.95     0  02:53        7.15        7.75       0.000
  
  
  **********************
  Node Surcharge Summary
  **********************
  
  Surcharging occurs when water rises above the top of the highest conduit.
  ---------------------------------------------------------------------
                                               Max. Height   Min. Depth
                                   Hours       Above Crown    Below Rim
  Node                 Type      Surcharged         Meters       Meters
  ---------------------------------------------------------------------
  WS02006109           JUNCTION        0.77          0.115        1.705
  WS02006112           JUNCTION        0.17          0.016        1.664
  WS02006232           JUNCTION        0.23          0.048        1.432
  WS02006256           JUNCTION        0.01          1.050        0.000
  WS02006228           JUNCTION        0.73          0.135        2.065
  YS02001748           JUNCTION        1.20          0.174        1.016
  YS02001751           JUNCTION        2.50          0.452        0.748
  YS02001754           JUNCTION        3.56          0.673        0.477
  YS02001762           JUNCTION        5.22          0.931        0.219
  YS02001765           JUNCTION        5.14          0.881        0.219
  YS02001767           JUNCTION        5.02          0.842        0.188
  YS02001770           JUNCTION        4.61          0.806        0.114
  YS02001774           JUNCTION        5.19          0.909        0.141
  YS02001779           JUNCTION        3.27          0.644        0.036
  YS02001759           JUNCTION        5.27          0.967        0.243
  YS02001619           JUNCTION        2.31          0.403        0.207
  YS02001629           JUNCTION        2.33          0.403        0.067
  YS02001641           JUNCTION        5.18          0.895        0.205
  YS02001644           JUNCTION        5.19          0.900        0.020
  YS02001652           JUNCTION        3.81          0.705        0.425
  YS02001655           JUNCTION        2.61          0.481        0.719
  YS02001658           JUNCTION        1.28          0.189        1.111
  YS02001622           JUNCTION        2.41          0.428        0.192
  YS02001633           JUNCTION        5.12          0.858        0.202
  YS02001649           JUNCTION        5.24          0.941        0.109
  YS02001757           JUNCTION        5.38          1.070        0.140
  YS02001625           JUNCTION        4.03          0.728        0.052
  YS02163301           JUNCTION        4.94          0.815        0.215
  YS02163601           JUNCTION        5.24          0.934        0.146
  YS02164001           JUNCTION        5.15          0.874        0.226
  YS02001647           JUNCTION        3.93          0.722        0.178
  YS02001790           JUNCTION        0.81          1.157        0.000
  YS02001791           JUNCTION        0.94          1.432        0.488
  YS02001793           JUNCTION        1.14          1.436        1.164
  
  
  *********************
  Node Flooding Summary
  *********************
  
  Flooding refers to all water that overflows a node, whether it ponds or not.
  --------------------------------------------------------------------------
                                                             Total   Maximum
                                 Maximum   Time of Max       Flood    Ponded
                        Hours       Rate    Occurrence      Volume     Depth
  Node                 Flooded       LPS   days hr:min    10^6 ltr    Meters
  --------------------------------------------------------------------------
  WS02006256              0.01    406.11      0  00:00       0.001     0.000
  YS02001790              0.01    219.23      0  02:52       0.000     0.000
  JK-storage              0.51    240.37      0  02:55       0.111     0.000
  XR-storage              2.29     63.40      0  05:32       0.406     0.000
  
  
  **********************
  Storage Volume Summary
  **********************
  
  --------------------------------------------------------------------------------------------------
                         Average     Avg  Evap Exfil       Maximum     Max    Time of Max    Maximum
                          Volume    Pcnt  Pcnt  Pcnt        Volume    Pcnt     Occurrence    Outflow
  Storage Unit           1000 m3    Full  Loss  Loss       1000 m3    Full    days hr:min        LPS
  --------------------------------------------------------------------------------------------------
  JK-storage               0.099      34     0     0         0.291     100       0  02:53     600.00
  CC-storage               1.660      11     0     0         3.708      24       0  07:50     200.00
  XR-storage               0.703      76     0     0         0.926     100       0  05:32     285.00
  
  
  ***********************
  Outfall Loading Summary
  ***********************
  
  -----------------------------------------------------------
                         Flow       Avg       Max       Total
                         Freq      Flow      Flow      Volume
  Outfall Node           Pcnt       LPS       LPS    10^6 ltr
  -----------------------------------------------------------
  WSC                   99.99    505.91    771.99      12.208
  3                     86.04    141.13    597.65       2.198
  4                      0.00      0.00      0.00       0.000
  5                      0.00      0.00      0.00       0.000
  -----------------------------------------------------------
  System                46.51    647.04    917.28      14.406
  
  
  ********************
  Link Flow Summary
  ********************
  
  -----------------------------------------------------------------------------
                                 Maximum  Time of Max   Maximum    Max/    Max/
                                  |Flow|   Occurrence   |Veloc|    Full    Full
  Link                 Type          LPS  days hr:min     m/sec    Flow   Depth
  -----------------------------------------------------------------------------
  WS02003066WSF200     CONDUIT    503.80     0  02:38      2.68    0.09    0.22
  WS02006287WS02006284 CONDUIT    236.14     0  02:17      1.70    0.11    0.23
  WS02006284WS02006280 CONDUIT    236.26     0  02:17      1.94    0.10    0.21
  WS02006280WS02006229 CONDUIT    236.26     0  02:17      3.12    0.05    0.15
  WS02006229WS02006228 CONDUIT    503.48     0  02:31      1.00    1.67    1.00
  WS02006256WS02006235 CONDUIT    177.52     0  00:01      2.73    1.88    1.00
  WS02006253WS02006251 CONDUIT     46.61     0  02:17      0.51    0.14    0.65
  WS02006252WS02006251 CONDUIT    200.51     0  02:20      1.97    0.74    0.76
  WS02006251WS02006249 CONDUIT    240.60     0  02:24      0.98    0.69    0.66
  WS02006249WS02006248 CONDUIT    239.00     0  02:25      1.07    1.31    0.64
  WS02006248WS02006247 CONDUIT    237.75     0  02:26      1.03    0.52    0.68
  WS02006247WS02006245 CONDUIT    238.93     0  02:41      0.99    1.89    0.72
  WS02006245WS02006243 CONDUIT    242.82     0  02:41      1.03    0.72    0.73
  WS02006243WS02006242 CONDUIT    250.28     0  02:41      0.84    0.53    0.83
  WS02006242WS02006240 CONDUIT    256.91     0  02:41      0.78    1.02    0.90
  WS02006240WS02006239 CONDUIT    264.51     0  02:40      0.84    0.83    0.89
  WS02006239WS02006238 CONDUIT    271.09     0  02:40      0.76    0.87    0.98
  WS02006238WS02006235 CONDUIT    274.19     0  02:40      1.32    0.61    0.99
  WS02006235WS02006234 CONDUIT    318.39     0  03:11      0.95    3.36    0.95
  WS02006234WS02006232 CONDUIT    318.77     0  03:11      1.17    0.64    0.98
  WS02006232WS02006231 CONDUIT    319.06     0  03:11      0.94    0.67    0.94
  WS02006231WS02006230 CONDUIT    319.70     0  03:12      1.29    4.85    0.86
  WS02006230WS02006229 CONDUIT    331.01     0  03:11      0.86    7.37    1.00
  WS02006228WS02006109 CONDUIT    503.48     0  02:31      1.00    2.20    1.00
  WS02006116WS02004401 CONDUIT    507.32     0  02:33      0.74    0.70    0.82
  WS02006115WS02006116 CONDUIT    508.13     0  02:33      0.84    0.65    0.73
  WS02006113WS02006111 CONDUIT    522.39     0  02:31      2.40    0.63    0.45
  WS02006112WS02006115 CONDUIT    510.17     0  02:32      0.71    0.30    0.86
  WS02006111WS02006112 CONDUIT    507.28     0  02:31      1.42    0.24    0.67
  WS02006110WS02006113 CONDUIT    504.88     0  02:31      1.21    0.46    0.77
  WS02006109WS02006110 CONDUIT    504.71     0  02:31      1.01    0.97    0.99
  WS02004411WS02004412 CONDUIT    504.08     0  02:37      0.90    0.72    0.67
  WS02004401WS02004402 CONDUIT    506.90     0  02:34      0.72    0.61    0.84
  WS02004413WS02003067 CONDUIT    503.74     0  02:38      1.07    0.22    0.58
  WS02004412WS02004413 CONDUIT    503.83     0  02:38      0.79    0.34    0.76
  WS02004410WS02004411 CONDUIT    504.57     0  02:36      0.91    0.69    0.66
  WS02004409WS02004410 CONDUIT    505.38     0  02:36      0.94    0.65    0.65
  WS02004407WS02004409 CONDUIT    506.54     0  02:35      1.43    0.18    0.47
  WS02004406WS02004407 CONDUIT    506.58     0  02:35      1.00    0.23    0.61
  WS02004405WS02004406 CONDUIT    506.63     0  02:34      0.66    1.00    0.94
  WS02004404WS02004405 CONDUIT    506.61     0  02:34      0.66    4.96    0.94
  WS02004403WS02004404 CONDUIT    506.50     0  02:34      0.68    0.37    0.91
  WS02004402WS02004403 CONDUIT    506.61     0  02:34      0.70    0.73    0.86
  WS02004139WS02001211 CONDUIT    285.53     0  03:28      0.80    0.36    0.52
  WS02004138WS02004139 CONDUIT    290.01     0  00:00      3.34    0.06    0.38
  WS02003067WS02003066 CONDUIT    503.77     0  02:38      1.16    0.16    0.41
  WS02001213WS02003059 CONDUIT    293.80     0  03:28      0.80    0.48    0.69
  WS02001212WS02001213 CONDUIT    293.36     0  03:28      1.19    0.45    0.39
  WS02001211WS02001212 CONDUIT    293.13     0  03:27      0.67    0.22    0.57
  WS02003072WS02003073 CONDUIT    770.17     0  02:37      1.61    1.66    0.44
  WS02003069WS02003072 CONDUIT    770.18     0  02:36      1.52    0.37    0.46
  WS02003060WS02003069 CONDUIT    769.93     0  02:36      1.78    0.30    0.41
  WS02003059WS02003060 CONDUIT    294.39     0  03:27      0.82    0.19    0.60
  HS02004901HS02004770 CONDUIT     12.01     0  02:14      0.05    0.05    0.34
  HS02004876HS02004881 CONDUIT     40.39     0  02:17      0.62    0.43    0.09
  HS02004870HS02004876 CONDUIT     32.12     0  02:17      0.43    0.02    0.11
  HS02004842HS02004848 CONDUIT      5.94     0  02:29      0.03    0.00    0.28
  HS02004837HS02004842 CONDUIT      6.16     0  02:30      0.41    0.00    0.29
  HS02004830HS02004837 CONDUIT     26.10     0  02:16      0.46    0.03    0.08
  HS02004824HS02004830 CONDUIT     26.24     0  02:17      0.50    0.03    0.07
  HS02004817HS02004824 CONDUIT     42.81     0  02:20      0.17    0.02    0.41
  HS02004770HS02004777 CONDUIT     61.21     0  02:13      0.25    0.11    0.35
  HS02004799HS02004480 CONDUIT    150.66     0  02:15      0.64    0.19    0.34
  HS02004792HS02004799 CONDUIT    137.72     0  02:15      0.73    0.08    0.27
  HS02004788HS02004792 CONDUIT     80.12     0  02:16      0.88    0.05    0.13
  HS02004785HS02004788 CONDUIT     60.68     0  02:15      0.55    0.46    0.16
  HS02004777HS02004785 CONDUIT     60.63     0  02:14      0.30    0.07    0.29
  HS02004480HS02004478 CONDUIT    177.80     0  02:16      1.02    0.75    0.25
  HS02004479HS02004480 CONDUIT     27.83     0  02:18      0.16    0.03    0.33
  HS02004862HS02004870 CONDUIT     23.46     0  02:18      0.50    0.03    0.07
  HS02004848HS02004852 CONDUIT      9.61     0  02:16      0.33    0.01    0.04
  HS02004856HS02004862 CONDUIT     16.00     0  02:17      0.37    0.02    0.06
  HS02004852HS02004856 CONDUIT      9.57     0  02:18      0.14    0.01    0.10
  HS02004802HS02004478 CONDUIT     60.12     0  02:20      0.32    0.05    0.27
  HS02004478WS02006287 CONDUIT    236.12     0  02:17      1.39    0.07    0.19
  HS02004817HS02004807 CONDUIT     44.09     0  02:21      0.12    0.03    0.53
  HS02004807HS02004802 CONDUIT     59.63     0  02:20      0.27    0.11    0.32
  YS02001759YS02001757 CONDUIT    221.65     0  02:50      0.28    0.16    1.00
  YS02001762YS02001759 CONDUIT    115.53     0  02:50      0.17    0.13    1.00
  YS02001765YS02001762 CONDUIT    123.11     0  02:36      0.23    0.12    1.00
  YS02001770YS02001767 CONDUIT    122.74     0  02:47      0.37    0.49    1.00
  YS02001774YS02001770 CONDUIT     54.54     0  04:10      0.13    0.03    1.00
  YS02001779YS02001774 CONDUIT     54.78     0  04:10      0.08    0.03    1.00
  YS02001649YS02001757 CONDUIT    338.93     0  02:56      0.43    0.21    1.00
  YS02001767YS02001765 CONDUIT    141.26     0  02:36      0.26    0.18    1.00
  YS02006561YS02001783 CONDUIT    372.10     0  02:53      1.86    0.19    0.55
  YS02001783YS02001784 CONDUIT    413.12     0  02:54      1.30    0.57    0.83
  YS02001784YS02001785 CONDUIT    399.97     0  02:55      1.39    0.93    0.89
  YS02001788YS02001790 CONDUIT    407.23     0  02:55      1.95    0.30    0.96
  YS02001790YS02001791 CONDUIT    407.65     0  02:55      2.30    0.44    1.00
  YS02001791YS02001793 CONDUIT    407.64     0  02:55      4.59    0.18    1.00
  YS02001910YS02001907 CONDUIT    114.61     0  03:01      0.49    0.06    0.77
  YS02001786YS02001788 CONDUIT    424.83     0  02:56      1.85    0.82    0.89
  YS02001915YS02001910 CONDUIT    114.53     0  03:00      0.44    0.06    0.56
  YS02001918YS02001915 CONDUIT     39.20     0  03:03      0.44    0.02    0.28
  YS02001923YS02001920 CONDUIT     35.51     0  03:02      0.48    0.02    0.15
  YS02001926YS02001923 CONDUIT     35.47     0  03:01      0.52    0.05    0.14
  YS02001929YS02001926 CONDUIT     35.49     0  03:01      0.55    0.02    0.14
  YS02001920YS02001918 CONDUIT     38.38     0  03:02      0.49    0.04    0.16
  YS02001629YS02163301 CONDUIT    107.55     0  02:51      0.14    0.13    1.00
  YS02001619YS02001622 CONDUIT    102.89     0  05:02      0.69    0.15    1.00
  YS02001622YS02001625 CONDUIT    150.52     0  05:02      0.27    0.08    1.00
  YS02001625YS02001629 CONDUIT    149.56     0  05:02      0.27    0.07    1.00
  YS02163301YS02001633 CONDUIT     89.37     0  02:52      0.12    0.08    1.00
  YS02163601YS02164001 CONDUIT    163.77     0  02:51      0.21    0.15    1.00
  YS02164001YS02001641 CONDUIT    158.79     0  02:52      0.20    0.22    1.00
  YS02001641YS02001644 CONDUIT    161.56     0  02:50      0.21    0.52    1.00
  YS02001647YS02001649 CONDUIT    255.30     0  03:04      0.33    0.13    1.00
  YS02006553YS02006556 CONDUIT    248.94     0  02:56      0.35    0.21    0.85
  YS02006556YS02006558 CONDUIT    248.99     0  02:54      0.34    0.20    0.88
  YSB6556YSB1171       CONDUIT     15.05     0  02:18      0.06    0.02    0.60
  YS02001907YS02006553 CONDUIT    248.80     0  02:56      0.29    0.29    0.97
  YS02006558YS02006561 CONDUIT    374.83     0  02:54      2.46    0.83    0.53
  YS02001633YS02163601 CONDUIT    162.09     0  02:51      0.21    0.17    1.00
  YS02001644YS02001647 CONDUIT    245.08     0  02:52      0.32    0.14    1.00
  YS02001745YS02001748 CONDUIT    140.55     0  04:52      1.45    0.05    0.91
  YS02001748YS02001751 CONDUIT    215.88     0  04:54      1.13    0.11    1.00
  YS02001751YS02001754 CONDUIT    122.20     0  03:49      1.01    0.06    1.00
  YS02001754YS02001757 CONDUIT    107.09     0  02:46      0.33    0.04    1.00
  YS02001882YS02001884 CONDUIT      4.69     0  02:07      0.06    0.01    0.50
  YS02001884YS02001887 CONDUIT     13.57     0  02:07      0.07    0.02    0.59
  YS02001890YS02001895 CONDUIT    138.70     0  02:42      0.31    0.06    0.56
  YS02001895YS02001898 CONDUIT    138.94     0  02:43      0.51    0.24    0.42
  YS02001898YS02001901 CONDUIT    138.84     0  02:41      0.35    0.09    0.50
  YS02001901YS02001904 CONDUIT    137.78     0  02:44      0.31    0.21    0.56
  YS02001904YS02001907 CONDUIT    138.32     0  02:44      0.23    0.05    0.71
  YS02001887YS02001890 CONDUIT    139.62     0  02:42      0.26    0.24    0.65
  YS02001652YS02001649 CONDUIT    124.84     0  02:54      0.37    0.06    1.00
  YS02001655YS02001652 CONDUIT    118.47     0  02:48      1.08    0.06    1.00
  YS02001658YS02001655 CONDUIT    179.87     0  04:31      1.30    0.08    1.00
  YS02001661YS02001658 CONDUIT    214.45     0  04:41      1.50    0.08    0.93
  YS02001664YS02001661 CONDUIT     98.44     0  02:43      1.19    0.03    0.67
  YSB1154YSB6556       CONDUIT     14.72     0  02:15      0.19    0.03    0.49
  YSB1174YSB1171       CONDUIT     13.73     0  02:11      0.06    0.02    0.60
  YSB1171HS02004479    CONDUIT     27.60     0  02:17      0.54    0.02    0.47
  HS02004881HS02006253 CONDUIT     45.21     0  02:16      1.76    0.01    0.11
  YS02001793JiankangQianchi CONDUIT    615.56     0  02:48     13.02    0.05    1.00
  YS02001757CaochengTiaoxuchi CONDUIT    613.75     0  02:58      1.31    0.27    1.00
  WSF200WS02003060     CONDUIT    504.37     0  02:38      1.70    0.11    0.32
  1                    CONDUIT    771.99     0  02:38      3.10    0.27    0.35
  2                    CONDUIT      0.00     0  00:00      0.00    0.00    0.00
  3                    CONDUIT    597.65     0  00:00     10.05    0.95    0.86
  4                    CONDUIT      0.00     0  00:00      0.00    0.00    0.00
  CC-Pump-1            PUMP       200.00     0  02:20              1.00
  CC-Pump-2            PUMP         0.00     0  00:00              0.00
  JK-Pump-1            PUMP       300.00     0  00:00              1.00
  JK-Pump-2            PUMP       300.00     0  00:00              1.00
  XR-Pump-1            PUMP        95.00     0  02:20              1.00
  XR-Pump-2            PUMP        95.00     0  00:00              1.00
  XR-Pump-3            PUMP        95.00     0  00:00              1.00
  XR-Pump-4            PUMP        95.00     0  00:00              1.00
  
  
  ***************************
  Flow Classification Summary
  ***************************
  
  -------------------------------------------------------------------------------------
                      Adjusted    ---------- Fraction of Time in Flow Class ---------- 
                       /Actual         Up    Down  Sub   Sup   Up    Down  Norm  Inlet 
  Conduit               Length    Dry  Dry   Dry   Crit  Crit  Crit  Crit  Ltd   Ctrl  
  -------------------------------------------------------------------------------------
  WS02003066WSF200        1.00   0.09  0.00  0.00  0.00  0.91  0.00  0.00  0.67  0.00
  WS02006287WS02006284    1.00   0.04  0.02  0.00  0.63  0.31  0.00  0.00  0.77  0.00
  WS02006284WS02006280    1.00   0.05  0.00  0.00  0.00  0.00  0.00  0.95  0.00  0.00
  WS02006280WS02006229    1.00   0.05  0.00  0.00  0.00  0.00  0.00  0.95  0.00  0.00
  WS02006229WS02006228    1.00   0.00  0.00  0.00  0.98  0.00  0.00  0.02  0.00  0.00
  WS02006256WS02006235    1.00   0.00  0.00  0.00  0.99  0.01  0.00  0.00  0.00  0.00
  WS02006253WS02006251    1.00   0.03  0.01  0.00  0.95  0.00  0.01  0.00  0.00  0.00
  WS02006252WS02006251    1.00   0.10  0.00  0.00  0.00  0.00  0.90  0.00  0.00  0.00
  WS02006251WS02006249    1.00   0.00  0.00  0.00  1.00  0.00  0.00  0.00  0.64  0.00
  WS02006249WS02006248    1.00   0.00  0.02  0.00  0.55  0.00  0.43  0.00  0.00  0.00
  WS02006248WS02006247    1.00   0.02  0.00  0.00  0.96  0.00  0.00  0.01  0.54  0.00
  WS02006247WS02006245    1.00   0.02  0.00  0.00  0.95  0.00  0.00  0.02  0.00  0.00
  WS02006245WS02006243    1.00   0.02  0.00  0.00  0.92  0.00  0.00  0.06  0.01  0.00
  WS02006243WS02006242    1.00   0.01  0.01  0.00  0.98  0.00  0.00  0.00  0.27  0.00
  WS02006242WS02006240    1.00   0.01  0.00  0.00  0.99  0.00  0.00  0.00  0.00  0.00
  WS02006240WS02006239    1.00   0.00  0.00  0.00  0.94  0.00  0.00  0.06  0.02  0.00
  WS02006239WS02006238    1.00   0.00  0.00  0.00  1.00  0.00  0.00  0.00  0.00  0.00
  WS02006238WS02006235    1.00   0.00  0.00  0.00  1.00  0.00  0.00  0.00  0.00  0.00
  WS02006235WS02006234    1.00   0.00  0.00  0.00  0.93  0.00  0.07  0.00  0.00  0.00
  WS02006234WS02006232    1.00   0.00  0.00  0.00  1.00  0.00  0.00  0.00  0.00  0.00
  WS02006232WS02006231    1.00   0.00  0.00  0.00  0.99  0.00  0.01  0.00  0.00  0.00
  WS02006231WS02006230    1.00   0.01  0.00  0.00  0.49  0.00  0.50  0.00  0.00  0.00
  WS02006230WS02006229    1.00   0.00  0.00  0.00  0.98  0.00  0.00  0.02  0.01  0.00
  WS02006228WS02006109    1.00   0.00  0.00  0.00  0.99  0.00  0.00  0.00  0.00  0.00
  WS02006116WS02004401    1.00   0.03  0.00  0.00  0.97  0.00  0.00  0.00  0.00  0.00
  WS02006115WS02006116    1.00   0.03  0.00  0.00  0.96  0.00  0.00  0.01  0.01  0.00
  WS02006113WS02006111    1.00   0.02  0.00  0.00  0.00  0.98  0.00  0.00  0.16  0.00
  WS02006112WS02006115    1.00   0.02  0.00  0.00  0.97  0.00  0.00  0.00  0.00  0.00
  WS02006111WS02006112    1.00   0.02  0.00  0.00  0.98  0.00  0.00  0.00  0.98  0.00
  WS02006110WS02006113    1.00   0.02  0.00  0.00  0.98  0.00  0.00  0.00  0.00  0.00
  WS02006109WS02006110    1.00   0.00  0.02  0.00  0.98  0.00  0.00  0.00  0.00  0.00
  WS02004411WS02004412    1.00   0.06  0.00  0.00  0.94  0.00  0.00  0.00  0.00  0.00
  WS02004401WS02004402    1.00   0.03  0.00  0.00  0.97  0.00  0.00  0.00  0.00  0.00
  WS02004413WS02003067    1.00   0.06  0.02  0.00  0.00  0.00  0.92  0.00  0.00  0.00
  WS02004412WS02004413    1.00   0.06  0.00  0.00  0.94  0.00  0.00  0.00  0.03  0.00
  WS02004410WS02004411    1.00   0.06  0.00  0.00  0.94  0.00  0.00  0.00  0.01  0.00
  WS02004409WS02004410    1.00   0.06  0.00  0.00  0.94  0.00  0.00  0.00  0.00  0.00
  WS02004407WS02004409    1.00   0.06  0.00  0.00  0.94  0.00  0.00  0.00  0.80  0.00
  WS02004406WS02004407    1.00   0.00  0.06  0.00  0.94  0.00  0.00  0.00  0.00  0.00
  WS02004405WS02004406    1.00   0.00  0.00  0.00  1.00  0.00  0.00  0.00  0.02  0.00
  WS02004404WS02004405    1.00   0.00  0.00  0.00  1.00  0.00  0.00  0.00  0.00  0.00
  WS02004403WS02004404    1.00   0.00  0.03  0.00  0.97  0.00  0.00  0.00  0.02  0.00
  WS02004402WS02004403    1.00   0.03  0.00  0.00  0.97  0.00  0.00  0.00  0.00  0.00
  WS02004139WS02001211    1.00   0.00  0.00  0.00  0.99  0.00  0.01  0.00  0.00  0.00
  WS02004138WS02004139    1.00   0.00  0.00  0.00  0.98  0.01  0.00  0.00  1.00  0.00
  WS02003067WS02003066    1.00   0.08  0.01  0.00  0.91  0.00  0.00  0.00  0.00  0.00
  WS02001213WS02003059    1.00   0.00  0.00  0.00  0.99  0.00  0.00  0.00  0.00  0.00
  WS02001212WS02001213    1.00   0.01  0.00  0.00  0.55  0.00  0.44  0.00  0.00  0.00
  WS02001211WS02001212    1.00   0.00  0.01  0.00  0.99  0.00  0.00  0.00  0.00  0.00
  WS02003072WS02003073    1.00   0.00  0.00  0.00  0.00  0.00  0.00  1.00  0.00  0.00
  WS02003069WS02003072    1.00   0.00  0.00  0.00  0.99  0.01  0.00  0.00  0.59  0.00
  WS02003060WS02003069    1.00   0.00  0.00  0.00  0.96  0.04  0.00  0.00  0.05  0.00
  WS02003059WS02003060    1.00   0.00  0.00  0.00  0.99  0.01  0.00  0.00  0.01  0.00
  HS02004901HS02004770    1.00   0.05  0.00  0.00  0.95  0.00  0.00  0.00  0.03  0.00
  HS02004876HS02004881    1.00   0.02  0.00  0.00  0.98  0.00  0.00  0.00  0.00  0.00
  HS02004870HS02004876    1.00   0.01  0.00  0.00  0.99  0.00  0.00  0.00  0.95  0.00
  HS02004842HS02004848    1.00   0.00  0.05  0.00  0.95  0.00  0.00  0.00  0.68  0.00
  HS02004837HS02004842    1.00   0.00  0.00  0.00  0.99  0.01  0.00  0.00  0.11  0.00
  HS02004830HS02004837    1.00   0.00  0.00  0.00  1.00  0.00  0.00  0.00  0.99  0.00
  HS02004824HS02004830    1.00   0.00  0.00  0.00  1.00  0.00  0.00  0.00  0.00  0.00
  HS02004817HS02004824    1.00   0.00  0.00  0.00  1.00  0.00  0.00  0.00  1.00  0.00
  HS02004770HS02004777    1.00   0.00  0.05  0.00  0.95  0.00  0.00  0.00  0.07  0.00
  HS02004799HS02004480    1.00   0.01  0.02  0.00  0.93  0.00  0.04  0.00  0.00  0.00
  HS02004792HS02004799    1.00   0.00  0.00  0.00  0.98  0.02  0.00  0.00  0.98  0.00
  HS02004788HS02004792    1.00   0.00  0.00  0.00  0.98  0.02  0.00  0.00  0.98  0.00
  HS02004785HS02004788    1.00   0.00  0.00  0.00  1.00  0.00  0.00  0.00  0.00  0.00
  HS02004777HS02004785    1.00   0.00  0.00  0.00  1.00  0.00  0.00  0.00  0.21  0.00
  HS02004480HS02004478    1.00   0.05  0.00  0.00  0.68  0.00  0.00  0.27  0.00  0.00
  HS02004479HS02004480    1.00   0.03  0.00  0.00  0.97  0.00  0.00  0.00  0.16  0.00
  HS02004862HS02004870    1.00   0.00  0.00  0.00  1.00  0.00  0.00  0.00  0.05  0.00
  HS02004848HS02004852    1.00   0.05  0.00  0.00  0.95  0.00  0.00  0.00  0.71  0.00
  HS02004856HS02004862    1.00   0.00  0.08  0.00  0.92  0.00  0.00  0.00  0.74  0.00
  HS02004852HS02004856    1.00   0.05  0.01  0.00  0.94  0.00  0.00  0.00  0.82  0.00
  HS02004802HS02004478    1.00   0.05  0.01  0.00  0.94  0.00  0.00  0.00  0.00  0.00
  HS02004478WS02006287    1.00   0.06  0.00  0.00  0.83  0.10  0.00  0.00  0.76  0.00
  HS02004817HS02004807    1.00   0.00  0.05  0.00  0.95  0.00  0.00  0.00  0.00  0.00
  HS02004807HS02004802    1.00   0.05  0.00  0.00  0.95  0.00  0.00  0.00  0.01  0.00
  YS02001759YS02001757    1.00   0.00  0.00  0.00  1.00  0.00  0.00  0.00  0.17  0.00
  YS02001762YS02001759    1.00   0.00  0.00  0.00  1.00  0.00  0.00  0.00  0.05  0.00
  YS02001765YS02001762    1.00   0.00  0.00  0.00  1.00  0.00  0.00  0.00  0.22  0.00
  YS02001770YS02001767    1.00   0.00  0.00  0.00  1.00  0.00  0.00  0.00  0.00  0.00
  YS02001774YS02001770    1.00   0.00  0.06  0.00  0.94  0.00  0.00  0.00  0.06  0.00
  YS02001779YS02001774    1.00   0.00  0.00  0.00  1.00  0.00  0.00  0.00  0.26  0.00
  YS02001649YS02001757    1.00   0.00  0.00  0.00  1.00  0.00  0.00  0.00  0.19  0.00
  YS02001767YS02001765    1.00   0.00  0.00  0.00  1.00  0.00  0.00  0.00  0.01  0.00
  YS02006561YS02001783    1.00   0.08  0.00  0.00  0.16  0.76  0.00  0.00  0.71  0.00
  YS02001783YS02001784    1.00   0.00  0.08  0.00  0.92  0.00  0.00  0.00  0.00  0.00
  YS02001784YS02001785    1.00   0.00  0.00  0.00  1.00  0.00  0.00  0.00  0.25  0.00
  YS02001788YS02001790    1.00   0.00  0.00  0.00  0.31  0.69  0.00  0.00  0.76  0.00
  YS02001790YS02001791    1.00   0.00  0.00  0.00  0.26  0.74  0.00  0.00  0.42  0.00
  YS02001791YS02001793    1.00   0.00  0.00  0.00  0.28  0.72  0.00  0.00  0.02  0.00
  YS02001910YS02001907    1.00   0.00  0.00  0.00  0.97  0.00  0.00  0.02  0.13  0.00
  YS02001786YS02001788    1.00   0.00  0.00  0.00  0.28  0.72  0.00  0.00  0.00  0.00
  YS02001915YS02001910    1.00   0.00  0.00  0.00  1.00  0.00  0.00  0.00  0.24  0.00
  YS02001918YS02001915    1.00   0.00  0.01  0.00  0.98  0.01  0.00  0.00  0.75  0.00
  YS02001923YS02001920    1.00   0.00  0.00  0.00  1.00  0.00  0.00  0.00  1.00  0.00
  YS02001926YS02001923    1.00   0.00  0.04  0.00  0.00  0.00  0.96  0.00  0.00  0.00
  YS02001929YS02001926    1.00   0.00  0.05  0.00  0.95  0.00  0.00  0.00  0.86  0.00
  YS02001920YS02001918    1.00   0.00  0.01  0.00  0.99  0.00  0.00  0.00  0.00  0.00
  YS02001629YS02163301    1.00   0.07  0.00  0.00  0.93  0.00  0.00  0.00  0.00  0.00
  YS02001619YS02001622    1.00   0.05  0.00  0.00  0.95  0.00  0.00  0.00  0.00  0.00
  YS02001622YS02001625    1.00   0.05  0.00  0.00  0.95  0.00  0.00  0.00  0.13  0.00
  YS02001625YS02001629    1.00   0.05  0.03  0.00  0.90  0.00  0.02  0.00  0.00  0.00
  YS02163301YS02001633    1.00   0.00  0.07  0.00  0.93  0.00  0.00  0.00  0.00  0.00
  YS02163601YS02164001    1.00   0.00  0.04  0.00  0.96  0.00  0.00  0.00  0.00  0.00
  YS02164001YS02001641    1.00   0.02  0.02  0.00  0.96  0.00  0.00  0.00  0.07  0.00
  YS02001641YS02001644    1.00   0.00  0.01  0.00  0.99  0.00  0.00  0.00  0.00  0.00
  YS02001647YS02001649    1.00   0.00  0.08  0.00  0.92  0.00  0.00  0.00  0.01  0.00
  YS02006553YS02006556    1.00   0.02  0.00  0.00  0.98  0.00  0.00  0.00  0.03  0.00
  YS02006556YS02006558    1.00   0.00  0.01  0.00  0.99  0.00  0.00  0.00  0.00  0.00
  YSB6556YSB1171          1.00   0.03  0.02  0.00  0.95  0.00  0.00  0.00  0.00  0.00
  YS02001907YS02006553    1.00   0.01  0.02  0.00  0.98  0.00  0.00  0.00  0.00  0.00
  YS02006558YS02006561    1.00   0.08  0.00  0.00  0.00  0.92  0.00  0.00  0.67  0.00
  YS02001633YS02163601    1.00   0.00  0.01  0.00  0.99  0.00  0.00  0.00  0.20  0.00
  YS02001644YS02001647    1.00   0.00  0.08  0.00  0.92  0.00  0.00  0.00  0.00  0.00
  YS02001745YS02001748    1.00   0.00  0.00  0.00  0.84  0.02  0.00  0.14  0.20  0.00
  YS02001748YS02001751    1.00   0.00  0.00  0.00  0.97  0.03  0.00  0.00  0.24  0.00
  YS02001751YS02001754    1.00   0.00  0.00  0.00  0.91  0.00  0.00  0.09  0.01  0.00
  YS02001754YS02001757    1.00   0.00  0.00  0.00  0.99  0.01  0.00  0.00  0.26  0.00
  YS02001882YS02001884    1.00   0.07  0.00  0.00  0.93  0.00  0.00  0.00  0.00  0.00
  YS02001884YS02001887    1.00   0.03  0.01  0.00  0.96  0.00  0.00  0.00  0.00  0.00
  YS02001890YS02001895    1.00   0.01  0.07  0.00  0.93  0.00  0.00  0.00  0.00  0.00
  YS02001895YS02001898    1.00   0.07  0.00  0.00  0.92  0.00  0.01  0.00  0.00  0.00
  YS02001898YS02001901    1.00   0.07  0.01  0.00  0.92  0.00  0.00  0.00  0.02  0.00
  YS02001901YS02001904    1.00   0.07  0.00  0.00  0.93  0.00  0.00  0.00  0.00  0.00
  YS02001904YS02001907    1.00   0.01  0.06  0.00  0.93  0.00  0.00  0.00  0.00  0.00
  YS02001887YS02001890    1.00   0.00  0.00  0.00  0.97  0.00  0.02  0.00  0.00  0.00
  YS02001652YS02001649    1.00   0.00  0.00  0.00  1.00  0.00  0.00  0.00  0.26  0.00
  YS02001655YS02001652    1.00   0.00  0.00  0.00  0.91  0.00  0.00  0.08  0.02  0.00
  YS02001658YS02001655    1.00   0.00  0.06  0.00  0.90  0.04  0.00  0.00  0.09  0.00
  YS02001661YS02001658    1.00   0.06  0.00  0.00  0.84  0.10  0.00  0.00  0.20  0.00
  YS02001664YS02001661    1.00   0.05  0.00  0.00  0.67  0.28  0.00  0.00  0.59  0.00
  YSB1154YSB6556          1.00   0.05  0.00  0.00  0.95  0.00  0.00  0.00  0.02  0.00
  YSB1174YSB1171          1.00   0.03  0.01  0.00  0.96  0.00  0.00  0.00  0.00  0.00
  YSB1171HS02004479       1.00   0.03  0.00  0.00  0.97  0.00  0.00  0.00  0.13  0.00
  HS02004881HS02006253    1.00   0.03  0.00  0.00  0.50  0.01  0.00  0.47  0.31  0.00
  YS02001793JiankangQianchi    1.00   0.00  0.00  0.00  0.45  0.54  0.00  0.00  0.11  0.00
  YS02001757CaochengTiaoxuchi    1.00   0.00  0.10  0.00  0.90  0.00  0.00  0.00  0.00  0.00
  WSF200WS02003060        1.00   0.00  0.09  0.00  0.79  0.12  0.00  0.00  0.37  0.00
  1                       1.00   0.00  0.00  0.00  0.00  1.00  0.00  0.00  0.19  0.00
  2                       1.00   1.00  0.00  0.00  0.00  0.00  0.00  0.00  0.00  0.00
  3                       1.00   0.14  0.00  0.00  0.00  0.86  0.00  0.00  0.04  0.00
  4                       1.00   1.00  0.00  0.00  0.00  0.00  0.00  0.00  0.00  0.00
  
  
  *************************
  Conduit Surcharge Summary
  *************************
  
  ----------------------------------------------------------------------------
                                                           Hours        Hours 
                         --------- Hours Full --------   Above Full   Capacity
  Conduit                Both Ends  Upstream  Dnstream   Normal Flow   Limited
  ----------------------------------------------------------------------------
  WS02006229WS02006228        0.73      0.82      0.73      2.56         0.73
  WS02006256WS02006235        5.65      5.65      7.83      5.30         0.01
  WS02006249WS02006248        0.01      0.01      0.01      2.36         0.01
  WS02006247WS02006245        0.01      0.01      0.01      2.43         0.01
  WS02006242WS02006240        0.01      0.01      0.01      0.04         0.01
  WS02006238WS02006235        0.01      0.01      0.15      0.01         0.01
  WS02006235WS02006234        0.01      0.01      0.01      5.67         0.01
  WS02006234WS02006232        0.01      0.01      0.23      0.01         0.01
  WS02006232WS02006231        0.01      0.01      0.23      0.01         0.01
  WS02006231WS02006230        0.01      0.01      0.01      5.64         0.01
  WS02006230WS02006229        1.43      2.49      1.43      5.71         1.43
  WS02006228WS02006109        0.77      1.13      0.77      2.68         0.77
  WS02006112WS02006115        0.01      0.01      0.17      0.01         0.01
  WS02006111WS02006112        0.01      0.01      2.57      0.01         0.01
  WS02006110WS02006113        0.01      0.01      0.94      0.01         0.01
  WS02006109WS02006110        0.01      0.01      1.13      0.01         0.01
  WS02004404WS02004405        0.01      0.01      0.01      5.63         0.01
  WS02003072WS02003073        0.01      0.01      0.01      2.67         0.01
  YS02001759YS02001757        5.27      5.27      5.38      0.01         0.01
  YS02001762YS02001759        5.22      5.22      5.27      0.01         0.01
  YS02001765YS02001762        5.14      5.14      5.22      0.01         0.01
  YS02001770YS02001767        5.01      5.01      5.02      0.01         0.53
  YS02001774YS02001770        4.61      4.61      5.19      0.01         0.01
  YS02001779YS02001774        3.27      3.27      5.19      0.01         0.01
  YS02001649YS02001757        5.24      5.24      5.38      0.01         0.01
  YS02001767YS02001765        5.02      5.02      5.14      0.01         0.01
  YS02001788YS02001790        0.01      0.01      0.81      0.01         0.01
  YS02001790YS02001791        0.81      0.81      0.94      0.01         0.01
  YS02001791YS02001793        0.94      0.94      1.21      0.01         0.01
  YS02001629YS02163301        4.35      4.35      4.94      0.01         0.01
  YS02001619YS02001622        2.31      2.31      2.41      0.01         0.01
  YS02001622YS02001625        2.41      2.41      4.03      0.01         0.01
  YS02001625YS02001629        2.33      2.33      4.03      0.01         0.01
  YS02163301YS02001633        4.94      4.94      5.16      0.01         0.01
  YS02163601YS02164001        5.15      5.15      5.24      0.01         0.01
  YS02164001YS02001641        5.15      5.15      5.18      0.01         0.01
  YS02001641YS02001644        5.18      5.18      5.19      0.01         0.47
  YS02001647YS02001649        3.93      3.93      5.24      0.01         0.01
  YS02001633YS02163601        5.12      5.12      5.24      0.01         0.01
  YS02001644YS02001647        3.93      3.93      5.19      0.01         0.01
  YS02001745YS02001748        0.01      0.01      1.20      0.01         0.01
  YS02001748YS02001751        1.64      1.64      2.50      0.01         0.01
  YS02001751YS02001754        2.50      2.50      3.56      0.01         0.01
  YS02001754YS02001757        3.97      3.97      5.38      0.01         0.01
  YS02001652YS02001649        4.05      4.05      5.24      0.01         0.01
  YS02001655YS02001652        2.61      2.61      3.81      0.01         0.01
  YS02001658YS02001655        1.28      1.28      2.61      0.01         0.01
  YS02001661YS02001658        0.01      0.01      1.28      0.01         0.01
  YS02001793JiankangQianchi        1.14      1.14      2.02      0.01         0.01
  YS02001757CaochengTiaoxuchi        1.98      1.98      5.38      0.01         0.01
  3                           0.01      0.01      0.01      0.01         0.01
  
  
  ***************
  Pumping Summary
  ***************
  
  ---------------------------------------------------------------------------------------------------------
                                                  Min       Avg       Max     Total     Power    % Time Off
                        Percent   Number of      Flow      Flow      Flow    Volume     Usage    Pump Curve
  Pump                 Utilized   Start-Ups       LPS       LPS       LPS  10^6 ltr     Kw-hr    Low   High
  ---------------------------------------------------------------------------------------------------------
  CC-Pump-1               32.69           1      0.00    190.98    200.00     1.756      5.61    0.0   32.3
  CC-Pump-2                0.00           0      0.00      0.00      0.00     0.000      0.00    0.0    0.0
  JK-Pump-1               74.47           3      0.00    102.05    300.00     1.377     23.79    0.0    0.0
  JK-Pump-2               95.74           2      0.00    179.73    300.00     3.241     42.37    0.0    0.0
  XR-Pump-1               29.78           2      0.00     82.62     95.00     0.684      7.22    0.0    0.0
  XR-Pump-2               34.05           2      0.00     78.42     95.00     0.827     14.66    0.0    0.0
  XR-Pump-3               93.62           3      0.00     90.02     95.00     2.394     24.84    0.0    0.0
  XR-Pump-4               97.87           3      0.00     90.37     95.00     2.508     26.59    0.0    0.0
  

  Analysis begun on:  Tue Dec 21 16:25:16 2021
  Analysis ended on:  Tue Dec 21 16:25:19 2021
  Total elapsed time: 00:00:03