
  EPA STORM WATER MANAGEMENT MODEL - VERSION 5.1 (Build 5.3.0.dev0)
  --------------------------------------------------------------

  WARNING 04: minimum elevation drop used for Conduit WS02004404WS02004405
  WARNING 03: negative offset ignored for Link YS02001904YS02001907
  
  *********************************************************
  NOTE: The summary statistics displayed in this report are
  based on results found at every computational time step,  
  not just on results from each reporting time step.
  *********************************************************
  
  ****************
  Analysis Options
  ****************
  Flow Units ............... LPS
  Process Models:
    Rainfall/Runoff ........ YES
    RDII ................... NO
    Snowmelt ............... NO
    Groundwater ............ NO
    Flow Routing ........... YES
    Ponding Allowed ........ NO
    Water Quality .......... NO
  Infiltration Method ...... HORTON
  Flow Routing Method ...... DYNWAVE
  Surcharge Method ......... EXTRAN
  Starting Date ............ 08/28/2015 08:00:00
  Ending Date .............. 08/28/2015 15:50:00
  Antecedent Dry Days ...... 8.0
  Report Time Step ......... 00:01:00
  Wet Time Step ............ 00:01:00
  Dry Time Step ............ 00:01:00
  Routing Time Step ........ 5.00 sec
  Variable Time Step ....... YES
  Maximum Trials ........... 8
  Number of Threads ........ 4
  Head Tolerance ........... 0.001500 m
  
  
  **************************        Volume         Depth
  Runoff Quantity Continuity     hectare-m            mm
  **************************     ---------       -------
  Total Precipitation ......         1.428         3.126
  Evaporation Loss .........         0.000         0.000
  Infiltration Loss ........         0.346         0.757
  Surface Runoff ...........         0.358         0.784
  Final Storage ............         0.724         1.585
  Continuity Error (%) .....        -0.014
  
  
  **************************        Volume        Volume
  Flow Routing Continuity        hectare-m      10^6 ltr
  **************************     ---------     ---------
  Dry Weather Inflow .......         0.616         6.165
  Wet Weather Inflow .......         0.358         3.576
  Groundwater Inflow .......         0.000         0.000
  RDII Inflow ..............         0.000         0.000
  External Inflow ..........         0.102         1.024
  External Outflow .........         0.888         8.876
  Flooding Loss ............         0.043         0.427
  Evaporation Loss .........         0.000         0.000
  Exfiltration Loss ........         0.000         0.000
  Initial Stored Volume ....         0.076         0.761
  Final Stored Volume ......         0.282         2.823
  Continuity Error (%) .....        -5.220
  
  
  *************************
  Highest Continuity Errors
  *************************
  Node JK-storage (-48.69%)
  Node HS02004842 (46.53%)
  Node YS02001884 (39.38%)
  Node YS02001774 (37.07%)
  Node YSB1171 (15.51%)
  
  
  ***************************
  Time-Step Critical Elements
  ***************************
  Link WS02006252WS02006251 (46.59%)
  Link YS02001793JiankangQianchi (22.56%)
  Link 3 (10.66%)
  Link WS02006280WS02006229 (8.74%)
  Link WS02006256WS02006235 (2.27%)
  
  
  ********************************
  Highest Flow Instability Indexes
  ********************************
  Link WS02006113WS02006111 (46)
  Link WS02006111WS02006112 (28)
  Link YS02001754YS02001757 (7)
  Link YS02001751YS02001754 (6)
  Link YS02001762YS02001759 (6)
  
  
  *************************
  Routing Time Step Summary
  *************************
  Minimum Time Step           :     0.50 sec
  Average Time Step           :     2.12 sec
  Maximum Time Step           :     5.00 sec
  Percent in Steady State     :    -0.00
  Average Iterations per Step :     2.02
  Percent Not Converging      :     0.03
  
  
  ***************************
  Subcatchment Runoff Summary
  ***************************
  
  ------------------------------------------------------------------------------------------------------------------------------
                            Total      Total      Total      Total     Imperv       Perv      Total       Total     Peak  Runoff
                           Precip      Runon       Evap      Infil     Runoff     Runoff     Runoff      Runoff   Runoff   Coeff
  Subcatchment                 mm         mm         mm         mm         mm         mm         mm    10^6 ltr      LPS
  ------------------------------------------------------------------------------------------------------------------------------
  sub0                       3.13       0.00       0.00       0.22       1.64       0.00       1.64        0.00     0.41   0.525
  sub1                       3.13       0.00       0.00       0.34       1.53       0.00       1.53        0.01     2.13   0.490
  sub2                       3.13       0.00       0.00       1.16       1.07       0.00       1.07        0.01     1.87   0.342
  sub3                       3.13       0.00       0.00       1.16       1.04       0.00       1.04        0.02     3.82   0.333
  sub4                       3.13       0.00       0.00       0.34       1.42       0.00       1.42        0.03     4.25   0.454
  sub5                       3.13       0.00       0.00       0.22       1.60       0.00       1.60        0.02     3.78   0.512
  sub7                       3.13       0.00       0.00       0.28       1.59       0.00       1.59        0.01     1.34   0.509
  sub8                       3.13       0.00       0.00       0.28       1.58       0.00       1.58        0.01     2.36   0.506
  sub9                       3.13       0.00       0.00       0.28       1.58       0.00       1.58        0.01     1.75   0.506
  sub10                      3.13       0.00       0.00       0.25       1.59       0.00       1.59        0.02     3.78   0.508
  sub11                      3.13       0.00       0.00       0.25       1.60       0.00       1.60        0.02     4.45   0.513
  sub12                      3.13       0.00       0.00       0.41       1.53       0.00       1.53        0.01     3.78   0.490
  sub14                      3.13       0.00       0.00       0.28       1.58       0.00       1.58        0.02     3.42   0.505
  sub15                      3.13       0.00       0.00       0.94       1.21       0.00       1.21        0.02     4.64   0.388
  sub16                      3.13       0.00       0.00       1.03       1.18       0.00       1.18        0.01     3.32   0.376
  sub17                      3.13       0.00       0.00       1.00       1.19       0.00       1.19        0.01     2.68   0.381
  sub22                      3.13       0.00       0.00       1.34       0.99       0.00       0.99        0.06    15.22   0.318
  sub23                      3.13       0.00       0.00       1.16       1.10       0.00       1.10        0.05    12.97   0.352
  sub60                      3.13       0.00       0.00       0.38       0.83       0.00       0.83        0.25    19.76   0.267
  sub61                      3.13       0.00       0.00       0.53       0.95       0.00       0.95        0.29    25.70   0.303
  sub62                      3.13       0.00       0.00       0.25       1.00       0.00       1.00        0.31    26.04   0.319
  sub63                      3.13       0.00       0.00       0.91       0.86       0.00       0.86        0.26    24.20   0.276
  sub64                      3.13       0.00       0.00       0.47       0.79       0.00       0.79        0.24    18.71   0.254
  sub65                      3.13       0.00       0.00       0.41       0.80       0.00       0.80        0.25    18.93   0.256
  sub66                      3.13       0.00       0.00       0.91       0.71       0.00       0.71        0.22    17.38   0.226
  sub67                      3.13       0.00       0.00       0.25       1.16       0.00       1.16        0.36    34.17   0.370
  sub68                      3.13       0.00       0.00       0.44       1.02       0.00       1.02        0.31    28.59   0.327
  sub69                      3.13       0.00       0.00       0.47       1.17       0.00       1.17        0.27    28.98   0.374
  sub70                      3.13       1.19       0.00       1.47       1.24       0.00       1.24        0.28    19.61   0.287
  sub71                      3.13       0.00       0.00       0.25       0.93       0.00       0.93        0.22    17.94   0.299
  sub72                      3.13       0.00       0.00       0.22       0.59       0.00       0.59        0.12     7.87   0.187
  sub73                      3.13       1.20       0.00       1.47       1.15       0.00       1.15        0.27    16.86   0.265
  sub74                      3.13       0.00       0.00       2.34       0.36       0.00       0.36        0.14    16.29   0.115
  
  
  ******************
  Node Depth Summary
  ******************
  
  ---------------------------------------------------------------------------------
                                 Average  Maximum  Maximum  Time of Max    Reported
                                   Depth    Depth      HGL   Occurrence   Max Depth
  Node                 Type       Meters   Meters   Meters  days hr:min      Meters
  ---------------------------------------------------------------------------------
  WS02001211           JUNCTION     0.55     0.69     5.53     0  01:22        0.69
  WS02001212           JUNCTION     0.29     0.40     5.46     0  01:25        0.40
  WS02001213           JUNCTION     0.49     0.59     5.35     0  01:27        0.59
  WS02003069           JUNCTION     0.31     0.38     4.97     0  04:29        0.38
  WS02003072           JUNCTION     0.38     0.45     4.82     0  04:29        0.45
  WS02003073           JUNCTION     0.22     0.27     4.33     0  04:30        0.27
  WS02003060           JUNCTION     0.28     0.34     5.27     0  04:28        0.34
  WS02003066           JUNCTION     0.16     0.23     5.79     0  03:22        0.23
  WS02003059           JUNCTION     0.55     0.64     5.33     0  01:26        0.64
  WS02003067           JUNCTION     0.42     0.58     5.90     0  03:22        0.58
  WS02004401           JUNCTION     0.49     0.65     6.65     0  03:17        0.65
  WS02004402           JUNCTION     0.53     0.69     6.65     0  03:17        0.69
  WS02004403           JUNCTION     0.55     0.71     6.64     0  03:18        0.71
  WS02004404           JUNCTION     0.63     0.79     6.64     0  03:18        0.79
  WS02004406           JUNCTION     0.64     0.80     6.63     0  03:18        0.80
  WS02004409           JUNCTION     0.31     0.47     6.24     0  03:21        0.47
  WS02004410           JUNCTION     0.33     0.50     6.22     0  03:21        0.50
  WS02004411           JUNCTION     0.35     0.51     6.19     0  03:22        0.51
  WS02004412           JUNCTION     0.37     0.53     6.17     0  03:22        0.53
  WS02004413           JUNCTION     0.52     0.70     6.17     0  03:22        0.70
  WS02004405           JUNCTION     0.62     0.79     6.64     0  03:18        0.79
  WS02006109           JUNCTION     0.55     0.73     7.35     0  03:06        0.73
  WS02006110           JUNCTION     0.57     0.73     7.32     0  03:07        0.73
  WS02006111           JUNCTION     0.15     0.21     6.92     0  03:07        0.21
  WS02006112           JUNCTION     0.64     0.82     6.70     0  03:16        0.82
  WS02006113           JUNCTION     0.22     0.33     7.22     0  03:07        0.33
  WS02006115           JUNCTION     0.38     0.54     6.68     0  03:17        0.54
  WS02006116           JUNCTION     0.46     0.62     6.66     0  03:17        0.62
  WS02006230           JUNCTION     0.47     0.66     7.41     0  03:06        0.66
  WS02006231           JUNCTION     0.29     0.44     7.56     0  03:06        0.44
  WS02006232           JUNCTION     0.41     0.58     7.62     0  03:06        0.58
  WS02006234           JUNCTION     0.31     0.48     7.64     0  03:05        0.48
  WS02006235           JUNCTION     0.34     0.51     7.68     0  03:05        0.51
  WS02006238           JUNCTION     0.36     0.54     7.68     0  03:05        0.53
  WS02006240           JUNCTION     0.24     0.41     7.71     0  03:06        0.41
  WS02006242           JUNCTION     0.28     0.46     7.73     0  03:06        0.46
  WS02006243           JUNCTION     0.16     0.33     7.75     0  03:13        0.33
  WS02006245           JUNCTION     0.16     0.32     7.81     0  03:13        0.32
  WS02006247           JUNCTION     0.17     0.35     7.85     0  03:12        0.35
  WS02006248           JUNCTION     0.14     0.30     7.88     0  03:12        0.30
  WS02006249           JUNCTION     0.17     0.34     7.94     0  03:12        0.34
  WS02006239           JUNCTION     0.30     0.48     7.69     0  03:06        0.48
  WS02006251           JUNCTION     0.16     0.33     8.00     0  03:11        0.33
  WS02006252           JUNCTION     0.15     0.29     8.54     0  03:11        0.29
  WS02006253           JUNCTION     0.19     0.35     8.00     0  03:12        0.35
  WS02006256           JUNCTION     0.75     2.35     9.28     0  00:00        1.19
  WS02004138           JUNCTION     0.12     0.17     7.42     0  00:20        0.17
  WS02004407           JUNCTION     0.14     0.22     6.53     0  03:18        0.22
  WS02006228           JUNCTION     0.53     0.72     7.37     0  03:06        0.72
  WS02006229           JUNCTION     0.50     0.69     7.38     0  03:06        0.69
  WS02006280           JUNCTION     0.04     0.08     8.35     0  02:33        0.08
  WS02006284           JUNCTION     0.32     0.39     8.79     0  02:32        0.39
  WS02006287           JUNCTION     0.06     0.12     9.08     0  02:32        0.12
  WSF200               JUNCTION     0.13     0.21     5.44     0  03:23        0.21
  HS02004901           JUNCTION     0.09     0.15     9.98     0  02:31        0.15
  HS02004881           JUNCTION     0.00     0.01     9.04     0  02:31        0.01
  HS02004876           JUNCTION     0.03     0.06     9.09     0  02:31        0.06
  HS02004870           JUNCTION     0.01     0.02     9.31     0  02:30        0.02
  HS02004862           JUNCTION     0.01     0.02     9.40     0  02:32        0.02
  HS02004856           JUNCTION     0.06     0.08     9.51     0  02:31        0.08
  HS02004852           JUNCTION     0.00     0.01     9.52     0  02:32        0.01
  HS02004848           JUNCTION     0.00     0.01     9.61     0  02:27        0.01
  HS02004842           JUNCTION     0.31     0.34     9.61     0  02:26        0.34
  HS02004837           JUNCTION     0.02     0.03     9.61     0  02:27        0.03
  HS02004830           JUNCTION     0.03     0.04     9.51     0  02:28        0.04
  HS02004824           JUNCTION     0.02     0.02     9.43     0  02:31        0.02
  HS02004817           JUNCTION     0.40     0.46     9.31     0  02:32        0.46
  HS02004807           JUNCTION     0.10     0.14     9.31     0  02:32        0.14
  HS02004802           JUNCTION     0.13     0.17     9.30     0  02:32        0.17
  HS02004799           JUNCTION     0.09     0.15     9.36     0  02:30        0.15
  HS02004792           JUNCTION     0.02     0.04     9.57     0  02:29        0.04
  HS02004788           JUNCTION     0.01     0.03     9.93     0  02:32        0.03
  HS02004785           JUNCTION     0.03     0.07     9.97     0  02:32        0.07
  HS02004777           JUNCTION     0.12     0.18     9.97     0  02:31        0.18
  HS02004770           JUNCTION     0.09     0.14     9.98     0  02:31        0.14
  HS02004480           JUNCTION     0.05     0.11     9.35     0  02:31        0.11
  HS02004479           JUNCTION     0.09     0.15     9.35     0  02:31        0.15
  HS02004478           JUNCTION     0.04     0.07     9.30     0  02:32        0.07
  YS02001745           JUNCTION     0.05     0.06     7.58     0  03:01        0.06
  YS02001748           JUNCTION     0.06     0.17     7.25     0  07:48        0.17
  YS02001751           JUNCTION     0.17     0.37     7.25     0  07:49        0.37
  YS02001754           JUNCTION     0.39     0.65     7.25     0  07:49        0.64
  YS02001762           JUNCTION     0.57     0.85     7.25     0  07:49        0.85
  YS02001765           JUNCTION     0.53     0.80     7.25     0  07:49        0.80
  YS02001767           JUNCTION     0.49     0.76     7.25     0  07:48        0.76
  YS02001770           JUNCTION     0.49     0.75     7.25     0  07:49        0.75
  YS02001774           JUNCTION     0.55     0.82     7.25     0  07:49        0.82
  YS02001779           JUNCTION     0.33     0.56     7.25     0  07:49        0.56
  YS02001882           JUNCTION     0.18     0.25     6.97     0  03:02        0.25
  YS02001884           JUNCTION     0.27     0.35     6.97     0  03:01        0.35
  YS02001759           JUNCTION     0.60     0.88     7.25     0  07:49        0.88
  YS02001887           JUNCTION     0.34     0.43     6.97     0  03:01        0.43
  YS02001890           JUNCTION     0.37     0.46     6.96     0  03:02        0.46
  YS02001898           JUNCTION     0.15     0.22     6.95     0  03:03        0.22
  YS02001901           JUNCTION     0.26     0.34     6.95     0  03:02        0.34
  YS02001904           JUNCTION     0.24     0.32     6.95     0  03:02        0.32
  YS02001907           JUNCTION     0.55     0.66     6.95     0  03:03        0.66
  YS02001910           JUNCTION     0.35     0.44     6.95     0  03:03        0.44
  YS02001915           JUNCTION     0.17     0.23     6.95     0  03:03        0.23
  YS02001918           JUNCTION     0.05     0.06     7.12     0  03:06        0.06
  YS02001619           JUNCTION     0.14     0.32     7.24     0  07:50        0.32
  YS02001629           JUNCTION     0.44     0.70     7.24     0  07:49        0.70
  YS02001641           JUNCTION     0.54     0.81     7.25     0  07:49        0.81
  YS02001644           JUNCTION     0.54     0.81     7.25     0  07:49        0.81
  YS02001652           JUNCTION     0.40     0.65     7.25     0  07:48        0.65
  YS02001655           JUNCTION     0.20     0.40     7.25     0  07:50        0.40
  YS02001920           JUNCTION     0.13     0.14     7.15     0  03:05        0.14
  YS02001923           JUNCTION     0.03     0.04     7.30     0  03:03        0.04
  YS02001926           JUNCTION     0.09     0.10     7.55     0  03:03        0.10
  YS02001929           JUNCTION     0.03     0.04     7.74     0  03:01        0.04
  YS02001658           JUNCTION     0.05     0.10     7.25     0  07:49        0.10
  YS02001661           JUNCTION     0.11     0.14     7.54     0  03:00        0.14
  YS02001664           JUNCTION     0.04     0.06     7.99     0  02:59        0.06
  YS02001622           JUNCTION     0.15     0.34     7.24     0  07:50        0.34
  YS02001633           JUNCTION     0.53     0.79     7.25     0  07:50        0.79
  YS02001649           JUNCTION     0.58     0.85     7.24     0  07:50        0.85
  YS02001757           JUNCTION     0.70     0.99     7.25     0  07:49        0.99
  YS02001895           JUNCTION     0.15     0.21     6.96     0  03:02        0.21
  YS02001625           JUNCTION     0.41     0.64     7.25     0  07:49        0.64
  YS02163301           JUNCTION     0.47     0.73     7.24     0  07:50        0.73
  YS02163601           JUNCTION     0.58     0.85     7.25     0  07:49        0.85
  YS02164001           JUNCTION     0.52     0.79     7.24     0  07:50        0.79
  YS02001647           JUNCTION     0.39     0.64     7.25     0  07:49        0.63
  YSB1154              JUNCTION     0.22     0.29     9.35     0  02:31        0.29
  YSB6556              JUNCTION     0.12     0.18     9.35     0  02:31        0.18
  YSB1174              JUNCTION     0.17     0.24     9.35     0  02:30        0.24
  YSB1171              JUNCTION     0.36     0.45     9.35     0  02:31        0.45
  YS02006553           JUNCTION     0.56     0.67     6.95     0  03:03        0.67
  YS02006561           JUNCTION     0.08     0.12     6.78     0  03:03        0.12
  YS02006556           JUNCTION     0.53     0.64     6.95     0  03:03        0.64
  YS02006558           JUNCTION     0.58     0.68     6.95     0  03:03        0.68
  YS02001783           JUNCTION     0.13     0.20     6.34     0  03:04        0.20
  YS02001784           JUNCTION     0.17     0.24     6.30     0  03:04        0.24
  YS02001786           JUNCTION     0.14     0.20     6.23     0  03:04        0.20
  YS02001788           JUNCTION     0.10     0.14     6.12     0  03:05        0.14
  YS02001790           JUNCTION     0.12     0.17     5.82     0  03:05        0.17
  YS02001791           JUNCTION     0.08     0.12     5.59     0  03:05        0.12
  YS02001793           JUNCTION     0.05     0.08     4.91     0  03:05        0.08
  WS02004139           JUNCTION     0.49     0.63     5.54     0  01:21        0.63
  WSC                  OUTFALL      0.22     0.27     0.94     0  04:31        0.27
  3                    OUTFALL      0.01     0.23     6.23     0  00:00        0.19
  4                    OUTFALL      0.00     0.00     7.00     0  00:00        0.00
  5                    OUTFALL      0.00     0.00     5.00     0  00:00        0.00
  JK-storage           STORAGE      0.20     3.00     3.80     0  00:00        2.39
  CC-storage           STORAGE      0.04     0.24     7.24     0  07:50        0.24
  XR-storage           STORAGE      5.94     7.72     5.72     0  04:02        7.72
  
  
  *******************
  Node Inflow Summary
  *******************
  
  -------------------------------------------------------------------------------------------------
                                  Maximum  Maximum                  Lateral       Total        Flow
                                  Lateral    Total  Time of Max      Inflow      Inflow     Balance
                                   Inflow   Inflow   Occurrence      Volume      Volume       Error
  Node                 Type           LPS      LPS  days hr:min    10^6 ltr    10^6 ltr     Percent
  -------------------------------------------------------------------------------------------------
  WS02001211           JUNCTION      7.35   292.67     0  01:19       0.207        5.49       0.619
  WS02001212           JUNCTION      0.00   292.67     0  01:45           0        5.45       0.289
  WS02001213           JUNCTION      0.00   292.67     0  01:25           0        5.44       0.336
  WS02003069           JUNCTION      0.32   447.97     0  04:28     0.00902        8.67       0.206
  WS02003072           JUNCTION      0.00   447.93     0  04:29           0        8.65       0.277
  WS02003073           JUNCTION      1.82   449.70     0  04:30      0.0514        8.68       0.290
  WS02003060           JUNCTION     16.53   447.62     0  04:28       0.466        8.68       0.197
  WS02003066           JUNCTION      0.00   285.79     0  03:22           0        2.83       0.082
  WS02003059           JUNCTION      0.00   292.67     0  01:28           0        5.43       0.610
  WS02003067           JUNCTION      0.00   285.79     0  03:22           0        2.83       0.202
  WS02004401           JUNCTION      0.00   287.79     0  03:13           0        2.97       0.455
  WS02004402           JUNCTION      0.00   287.56     0  03:16           0        2.96       0.452
  WS02004403           JUNCTION      0.00   287.41     0  03:16           0        2.95       0.430
  WS02004404           JUNCTION      0.16   287.48     0  03:17     0.00457        2.94       0.343
  WS02004406           JUNCTION      0.00   287.44     0  03:17           0        2.91       0.850
  WS02004409           JUNCTION      0.00   287.40     0  03:18           0        2.89       0.233
  WS02004410           JUNCTION      0.00   286.83     0  03:19           0        2.88       0.296
  WS02004411           JUNCTION      0.00   286.35     0  03:20           0        2.87       0.332
  WS02004412           JUNCTION      0.00   286.04     0  03:21           0        2.86       0.400
  WS02004413           JUNCTION      0.00   285.85     0  03:21           0        2.85       0.654
  WS02004405           JUNCTION      0.04   287.48     0  03:17     0.00107        2.93       0.524
  WS02006109           JUNCTION      1.23   301.16     0  03:06      0.0347        3.04       0.492
  WS02006110           JUNCTION      0.00   300.82     0  03:06           0        3.02       0.396
  WS02006111           JUNCTION      0.00   303.14     0  03:07           0        3.01       0.063
  WS02006112           JUNCTION      2.68   300.61     0  03:07      0.0102        3.01       0.638
  WS02006113           JUNCTION      0.00   300.26     0  03:07           0        3.01       0.132
  WS02006115           JUNCTION      0.00   296.02     0  03:08           0        2.99       0.351
  WS02006116           JUNCTION      0.00   289.70     0  03:08           0        2.98       0.366
  WS02006230           JUNCTION     10.28   255.80     0  03:06        0.29        2.55       0.289
  WS02006231           JUNCTION      0.00   246.48     0  03:06           0        2.27       0.216
  WS02006232           JUNCTION      0.00   247.21     0  03:05           0        2.28       0.411
  WS02006234           JUNCTION      0.00   248.34     0  03:05           0        2.28       0.056
  WS02006235           JUNCTION      0.00   249.07     0  03:05           0        2.31       0.258
  WS02006238           JUNCTION      0.00   147.69     0  03:14           0       0.737       0.372
  WS02006240           JUNCTION      0.00   147.65     0  03:13           0       0.719       0.303
  WS02006242           JUNCTION      0.00   147.70     0  03:13           0       0.715       0.337
  WS02006243           JUNCTION      0.00   147.76     0  03:13           0       0.708      -0.200
  WS02006245           JUNCTION      0.00   147.83     0  03:13           0       0.709       0.285
  WS02006247           JUNCTION      0.00   147.93     0  03:12           0       0.709       0.028
  WS02006248           JUNCTION      0.00   148.03     0  03:12           0       0.709      -0.083
  WS02006249           JUNCTION      0.00   148.26     0  03:12           0        0.71       0.176
  WS02006239           JUNCTION      0.00   147.65     0  03:14           0       0.727       0.389
  WS02006251           JUNCTION      0.08   149.32     0  03:11     0.00217       0.715      -0.063
  WS02006252           JUNCTION      0.00   142.70     0  03:11           0       0.657       0.064
  WS02006253           JUNCTION      0.41    11.12     0  02:31     0.00133      0.0567       0.242
  WS02006256           JUNCTION      0.00   600.00     0  00:00           0        1.81       0.080
  WS02004138           JUNCTION      0.00   285.00     0  00:20           0         5.3       0.035
  WS02004407           JUNCTION      0.00   287.42     0  03:18           0        2.89       0.112
  WS02006228           JUNCTION      0.00   300.60     0  03:06           0        3.01       0.323
  WS02006229           JUNCTION      0.00   300.98     0  03:06           0        3.02       0.218
  WS02006280           JUNCTION      0.00    66.27     0  02:33           0       0.472       0.016
  WS02006284           JUNCTION      0.10    66.27     0  02:32      0.0027       0.473       0.253
  WS02006287           JUNCTION      0.00    66.18     0  02:32           0       0.471       0.147
  WSF200               JUNCTION      0.00   285.78     0  03:22           0        2.82       0.063
  HS02004901           JUNCTION      3.32     3.32     0  02:19      0.0123      0.0125      16.405
  HS02004881           JUNCTION      1.34    10.81     0  02:31     0.00536      0.0551       0.152
  HS02004876           JUNCTION      2.13     9.66     0  02:29      0.0102      0.0502       1.021
  HS02004870           JUNCTION      2.36     7.59     0  02:29      0.0101      0.0402       0.259
  HS02004862           JUNCTION      2.07     5.38     0  02:30      0.0156      0.0302       0.543
  HS02004856           JUNCTION      1.75     3.34     0  02:29      0.0076      0.0161       9.806
  HS02004852           JUNCTION      0.00     1.71     0  02:30           0     0.00851       0.518
  HS02004848           JUNCTION      3.82     3.82     0  02:31      0.0234      0.0234       0.169
  HS02004842           JUNCTION      0.00     4.47     0  00:03           0      0.0279      87.024
  HS02004837           JUNCTION     10.13    12.21     0  02:26       0.197       0.212       0.387
  HS02004830           JUNCTION      0.15    12.35     0  02:27     0.00423       0.202       0.613
  HS02004824           JUNCTION      4.30    16.61     0  02:31       0.031       0.232       0.232
  HS02004817           JUNCTION      0.60    17.21     0  02:31      0.0169       0.248       7.197
  HS02004807           JUNCTION      4.45    21.26     0  02:30      0.0186        0.25       1.717
  HS02004802           JUNCTION      0.00    21.24     0  02:32           0       0.246       1.678
  HS02004799           JUNCTION      3.42    38.33     0  02:29       0.015       0.212       1.059
  HS02004792           JUNCTION     15.50    35.07     0  02:29      0.0707       0.198       0.212
  HS02004788           JUNCTION      6.31    20.71     0  02:31      0.0679       0.128       0.304
  HS02004785           JUNCTION      0.15    14.74     0  02:30     0.00423      0.0623       0.762
  HS02004777           JUNCTION      0.03    14.93     0  02:27    0.000846      0.0624       9.014
  HS02004770           JUNCTION     12.97    15.66     0  02:22      0.0525      0.0632       5.159
  HS02004480           JUNCTION      0.00    45.02     0  02:30           0       0.241       0.261
  HS02004479           JUNCTION      0.00     6.81     0  02:33           0      0.0413       1.791
  HS02004478           JUNCTION      0.00    66.18     0  02:31           0       0.472       0.149
  YS02001745           JUNCTION     19.77    19.77     0  03:01       0.253       0.253       0.106
  YS02001748           JUNCTION      0.04    19.80     0  03:01     0.00127       0.254       0.659
  YS02001751           JUNCTION      0.01    37.77     0  04:52     0.00031       0.314       2.413
  YS02001754           JUNCTION      0.26   119.41     0  04:49     0.00733       0.497       3.412
  YS02001762           JUNCTION      0.00    34.05     0  02:52           0        0.29       6.849
  YS02001765           JUNCTION      0.00    43.25     0  04:26           0       0.285       7.705
  YS02001767           JUNCTION      0.54    38.75     0  04:36      0.0151       0.299      10.574
  YS02001770           JUNCTION     26.19    31.71     0  02:53       0.311       0.319       8.316
  YS02001774           JUNCTION      0.00    15.27     0  02:41           0      0.0567      58.902
  YS02001779           JUNCTION      0.01     8.00     0  04:35    0.000141      0.0279      50.184
  YS02001882           JUNCTION      0.00     1.43     0  02:12           0     0.00235     107.093
  YS02001884           JUNCTION      0.00     4.53     0  02:11           0     0.00981      64.958
  YS02001759           JUNCTION     25.74    62.67     0  02:52       0.293       0.551       3.952
  YS02001887           JUNCTION     34.62    34.62     0  02:57       0.369       0.373       1.652
  YS02001890           JUNCTION      0.00    34.44     0  02:59           0       0.358       1.909
  YS02001898           JUNCTION      0.00    34.28     0  03:01           0       0.349       0.431
  YS02001901           JUNCTION      0.00    34.32     0  03:03           0       0.349       1.294
  YS02001904           JUNCTION      0.00    34.24     0  03:02           0       0.349       1.211
  YS02001907           JUNCTION      0.00    62.73     0  03:04           0       0.756       2.766
  YS02001910           JUNCTION      0.00    28.69     0  03:01           0       0.417       2.165
  YS02001915           JUNCTION     17.96    28.61     0  03:01       0.221        0.42       0.792
  YS02001918           JUNCTION      0.00    10.78     0  03:05           0         0.2       0.312
  YS02001619           JUNCTION     17.38    17.38     0  03:01       0.216       0.216       1.540
  YS02001629           JUNCTION      0.00    21.31     0  02:58           0        0.18       7.643
  YS02001641           JUNCTION      0.00    44.57     0  03:06           0       0.359       5.229
  YS02001644           JUNCTION     18.75    60.35     0  02:57       0.242       0.577       3.942
  YS02001652           JUNCTION      0.00    33.90     0  05:00           0       0.275       5.871
  YS02001655           JUNCTION      0.15    24.35     0  03:00     0.00434       0.265       3.518
  YS02001920           JUNCTION      2.87    10.79     0  03:03      0.0809       0.201       0.721
  YS02001923           JUNCTION      0.04     7.92     0  03:03     0.00106        0.12       0.133
  YS02001926           JUNCTION      0.05     7.91     0  03:01     0.00147       0.121       0.992
  YS02001929           JUNCTION      7.87     7.87     0  03:01       0.119       0.119       0.122
  YS02001658           JUNCTION      0.00    24.20     0  03:00           0        0.26       0.506
  YS02001661           JUNCTION      0.00    24.20     0  02:59           0       0.261       0.246
  YS02001664           JUNCTION     24.20    24.20     0  02:59       0.261       0.261       0.046
  YS02001622           JUNCTION      0.00    19.13     0  02:57           0       0.213       5.024
  YS02001633           JUNCTION     19.13    43.12     0  02:57       0.251       0.404       6.962
  YS02001649           JUNCTION      0.00    87.08     0  03:05           0       0.783       4.287
  YS02001757           JUNCTION      0.00   211.12     0  04:19           0        1.62       5.772
  YS02001895           JUNCTION      0.00    34.29     0  02:59           0       0.352       0.735
  YS02001625           JUNCTION      0.00    21.43     0  02:56           0       0.203      13.394
  YS02163301           JUNCTION      0.00    24.77     0  02:57           0       0.172      11.947
  YS02163601           JUNCTION      0.11    45.23     0  03:06      0.0031       0.378       7.493
  YS02164001           JUNCTION      0.00    44.32     0  03:06           0        0.36       4.822
  YS02001647           JUNCTION      0.00    63.55     0  03:05           0       0.545       3.702
  YSB1154              JUNCTION      3.78     3.78     0  02:24      0.0181      0.0196       7.948
  YSB6556              JUNCTION      0.00     3.71     0  02:26           0      0.0207       6.372
  YSB1174              JUNCTION      3.78     3.78     0  02:18      0.0134      0.0144       9.766
  YSB1171              JUNCTION      0.00     6.92     0  02:28           0      0.0407      18.351
  YS02006553           JUNCTION      0.00    62.83     0  03:04           0       0.743       1.814
  YS02006561           JUNCTION      0.00    91.65     0  03:03           0        1.04       0.039
  YS02006556           JUNCTION      0.00    62.91     0  03:04           0       0.745       1.288
  YS02006558           JUNCTION     29.47    91.67     0  03:03       0.339        1.06       0.384
  YS02001783           JUNCTION      0.00    91.65     0  03:03           0        1.04       0.091
  YS02001784           JUNCTION      1.06    92.69     0  03:04      0.0299        1.07       0.154
  YS02001786           JUNCTION      0.06    92.73     0  03:04     0.00159        1.07       0.154
  YS02001788           JUNCTION      0.07    92.80     0  03:04       0.002        1.07       0.083
  YS02001790           JUNCTION      0.15    92.95     0  03:05     0.00437        1.07       0.108
  YS02001791           JUNCTION      0.00    92.95     0  03:05           0        1.07       0.050
  YS02001793           JUNCTION      0.00    95.59     0  03:05           0        1.07       0.034
  WS02004139           JUNCTION      0.32   285.42     0  00:20     0.00905        5.31       0.510
  WSC                  OUTFALL       0.00   449.57     0  04:31           0        8.65       0.000
  3                    OUTFALL       0.00   597.65     0  00:00           0       0.225       0.000
  4                    OUTFALL       0.00     0.00     0  00:00           0           0       0.000 ltr
  5                    OUTFALL       0.00     0.00     0  00:00           0           0       0.000 ltr
  JK-storage           STORAGE       0.00    95.15     0  03:05           0        1.22     -32.746
  CC-storage           STORAGE       0.00   142.70     0  03:11           0        1.34       1.019
  XR-storage           STORAGE     232.63   232.63     0  03:01        6.05        6.65       0.000
  
  
  **********************
  Node Surcharge Summary
  **********************
  
  Surcharging occurs when water rises above the top of the highest conduit.
  ---------------------------------------------------------------------
                                               Max. Height   Min. Depth
                                   Hours       Above Crown    Below Rim
  Node                 Type      Surcharged         Meters       Meters
  ---------------------------------------------------------------------
  WS02006256           JUNCTION        0.01          1.050        0.000
  
  
  *********************
  Node Flooding Summary
  *********************
  
  Flooding refers to all water that overflows a node, whether it ponds or not.
  --------------------------------------------------------------------------
                                                             Total   Maximum
                                 Maximum   Time of Max       Flood    Ponded
                        Hours       Rate    Occurrence      Volume     Depth
  Node                 Flooded       LPS   days hr:min    10^6 ltr    Meters
  --------------------------------------------------------------------------
  WS02006256              0.01    406.11      0  00:00       0.001     0.000
  XR-storage              3.79    128.06      0  04:02       0.427     0.000
  
  
  **********************
  Storage Volume Summary
  **********************
  
  --------------------------------------------------------------------------------------------------
                         Average     Avg  Evap Exfil       Maximum     Max    Time of Max    Maximum
                          Volume    Pcnt  Pcnt  Pcnt        Volume    Pcnt     Occurrence    Outflow
  Storage Unit           1000 m3    Full  Loss  Loss       1000 m3    Full    days hr:min        LPS
  --------------------------------------------------------------------------------------------------
  JK-storage               0.010       3     0     0         0.151      52       0  00:00     600.00
  CC-storage               0.113       1     0     0         0.680       4       0  07:50     142.70
  XR-storage               0.713      77     0     0         0.926     100       0  04:02     285.00
  
  
  ***********************
  Outfall Loading Summary
  ***********************
  
  -----------------------------------------------------------
                         Flow       Avg       Max       Total
                         Freq      Flow      Flow      Volume
  Outfall Node           Pcnt       LPS       LPS    10^6 ltr
  -----------------------------------------------------------
  WSC                   99.98    314.95    449.57       8.651
  3                     15.56    172.56    597.65       0.225
  4                      0.00      0.00      0.00       0.000
  5                      0.00      0.00      0.00       0.000
  -----------------------------------------------------------
  System                28.89    487.51    597.72       8.876
  
  
  ********************
  Link Flow Summary
  ********************
  
  -----------------------------------------------------------------------------
                                 Maximum  Time of Max   Maximum    Max/    Max/
                                  |Flow|   Occurrence   |Veloc|    Full    Full
  Link                 Type          LPS  days hr:min     m/sec    Flow   Depth
  -----------------------------------------------------------------------------
  WS02003066WSF200     CONDUIT    285.78     0  03:22      2.38    0.05    0.16
  WS02006287WS02006284 CONDUIT     66.18     0  02:32      1.07    0.03    0.13
  WS02006284WS02006280 CONDUIT     66.27     0  02:33      1.33    0.03    0.11
  WS02006280WS02006229 CONDUIT     66.27     0  02:33      2.13    0.01    0.08
  WS02006229WS02006228 CONDUIT    300.60     0  03:06      0.85    1.00    0.86
  WS02006256WS02006235 CONDUIT    177.52     0  00:01      2.73    1.88    1.00
  WS02006253WS02006251 CONDUIT     11.11     0  02:31      0.30    0.03    0.48
  WS02006252WS02006251 CONDUIT    142.73     0  03:11      1.73    0.52    0.63
  WS02006251WS02006249 CONDUIT    148.26     0  03:12      0.82    0.43    0.48
  WS02006249WS02006248 CONDUIT    148.03     0  03:12      0.91    0.81    0.44
  WS02006248WS02006247 CONDUIT    147.93     0  03:12      0.87    0.32    0.45
  WS02006247WS02006245 CONDUIT    147.83     0  03:13      0.83    1.17    0.47
  WS02006245WS02006243 CONDUIT    147.76     0  03:13      0.94    0.44    0.46
  WS02006243WS02006242 CONDUIT    147.70     0  03:13      0.78    0.32    0.55
  WS02006242WS02006240 CONDUIT    147.65     0  03:13      0.67    0.59    0.62
  WS02006240WS02006239 CONDUIT    147.65     0  03:14      0.61    0.46    0.61
  WS02006239WS02006238 CONDUIT    147.69     0  03:14      0.69    0.47    0.71
  WS02006238WS02006235 CONDUIT    147.73     0  03:15      1.32    0.33    0.75
  WS02006235WS02006234 CONDUIT    248.34     0  03:05      0.94    2.62    0.69
  WS02006234WS02006232 CONDUIT    247.21     0  03:05      1.17    0.50    0.76
  WS02006232WS02006231 CONDUIT    246.48     0  03:06      0.83    0.52    0.72
  WS02006231WS02006230 CONDUIT    245.53     0  03:06      1.18    3.72    0.53
  WS02006230WS02006229 CONDUIT    255.64     0  03:06      0.86    5.69    0.93
  WS02006228WS02006109 CONDUIT    299.93     0  03:06      0.76    1.31    0.89
  WS02006116WS02004401 CONDUIT    287.79     0  03:13      0.56    0.40    0.64
  WS02006115WS02006116 CONDUIT    289.70     0  03:08      0.70    0.37    0.55
  WS02006113WS02006111 CONDUIT    303.14     0  03:07      2.02    0.36    0.34
  WS02006112WS02006115 CONDUIT    296.02     0  03:08      0.55    0.17    0.67
  WS02006111WS02006112 CONDUIT    299.72     0  03:07      0.96    0.14    0.62
  WS02006110WS02006113 CONDUIT    300.26     0  03:07      0.85    0.27    0.66
  WS02006109WS02006110 CONDUIT    300.82     0  03:06      0.66    0.58    0.85
  WS02004411WS02004412 CONDUIT    286.04     0  03:21      0.69    0.41    0.52
  WS02004401WS02004402 CONDUIT    287.56     0  03:16      0.52    0.35    0.67
  WS02004413WS02003067 CONDUIT    285.79     0  03:22      0.79    0.12    0.47
  WS02004412WS02004413 CONDUIT    285.85     0  03:21      0.56    0.19    0.62
  WS02004410WS02004411 CONDUIT    286.35     0  03:20      0.72    0.39    0.50
  WS02004409WS02004410 CONDUIT    286.83     0  03:19      0.79    0.37    0.48
  WS02004407WS02004409 CONDUIT    287.40     0  03:18      1.25    0.10    0.34
  WS02004406WS02004407 CONDUIT    287.42     0  03:18      0.72    0.13    0.51
  WS02004405WS02004406 CONDUIT    287.44     0  03:17      0.43    0.57    0.79
  WS02004404WS02004405 CONDUIT    287.44     0  03:17      0.49    2.82    0.79
  WS02004403WS02004404 CONDUIT    287.32     0  03:17      0.52    0.21    0.75
  WS02004402WS02004403 CONDUIT    287.41     0  03:16      0.52    0.41    0.70
  WS02004139WS02001211 CONDUIT    285.32     0  01:19      0.51    0.36    0.51
  WS02004138WS02004139 CONDUIT    285.10     0  00:20      1.53    0.06    0.37
  WS02003067WS02003066 CONDUIT    285.79     0  03:22      0.85    0.09    0.34
  WS02001213WS02003059 CONDUIT    292.67     0  01:28      0.59    0.48    0.61
  WS02001212WS02001213 CONDUIT    292.67     0  01:25      1.19    0.45    0.35
  WS02001211WS02001212 CONDUIT    292.67     0  01:45      0.67    0.22    0.54
  WS02003072WS02003073 CONDUIT    447.88     0  04:30      1.33    0.97    0.34
  WS02003069WS02003072 CONDUIT    447.93     0  04:29      1.28    0.22    0.35
  WS02003060WS02003069 CONDUIT    447.65     0  04:28      1.56    0.18    0.30
  WS02003059WS02003060 CONDUIT    292.67     0  01:27      0.82    0.19    0.48
  HS02004901HS02004770 CONDUIT      2.90     0  02:27      0.02    0.01    0.21
  HS02004876HS02004881 CONDUIT      9.61     0  02:31      0.26    0.10    0.05
  HS02004870HS02004876 CONDUIT      7.58     0  02:30      0.19    0.01    0.06
  HS02004842HS02004848 CONDUIT      2.18     0  02:38      0.01    0.00    0.25
  HS02004837HS02004842 CONDUIT      4.47     0  00:03      0.41    0.00    0.27
  HS02004830HS02004837 CONDUIT     12.20     0  02:27      0.33    0.01    0.05
  HS02004824HS02004830 CONDUIT     12.35     0  02:28      0.38    0.02    0.05
  HS02004817HS02004824 CONDUIT     16.61     0  02:31      0.17    0.01    0.34
  HS02004770HS02004777 CONDUIT     14.90     0  02:27      0.09    0.03    0.23
  HS02004799HS02004480 CONDUIT     38.26     0  02:30      0.31    0.05    0.18
  HS02004792HS02004799 CONDUIT     35.05     0  02:29      0.36    0.02    0.14
  HS02004788HS02004792 CONDUIT     20.69     0  02:32      0.53    0.01    0.06
  HS02004785HS02004788 CONDUIT     14.67     0  02:32      0.28    0.11    0.07
  HS02004777HS02004785 CONDUIT     14.59     0  02:30      0.12    0.02    0.18
  HS02004480HS02004478 CONDUIT     44.99     0  02:31      0.57    0.19    0.11
  HS02004479HS02004480 CONDUIT      6.87     0  02:33      0.15    0.01    0.18
  HS02004862HS02004870 CONDUIT      5.36     0  02:31      0.28    0.01    0.03
  HS02004848HS02004852 CONDUIT      1.71     0  02:30      0.17    0.00    0.01
  HS02004856HS02004862 CONDUIT      3.33     0  02:31      0.19    0.00    0.02
  HS02004852HS02004856 CONDUIT      1.69     0  02:32      0.04    0.00    0.07
  HS02004802HS02004478 CONDUIT     21.28     0  02:34      0.17    0.02    0.17
  HS02004478WS02006287 CONDUIT     66.18     0  02:32      0.78    0.02    0.09
  HS02004817HS02004807 CONDUIT     17.25     0  02:35      0.06    0.01    0.42
  HS02004807HS02004802 CONDUIT     21.24     0  02:32      0.19    0.04    0.21
  YS02001759YS02001757 CONDUIT     61.36     0  03:09      0.12    0.04    0.93
  YS02001762YS02001759 CONDUIT     45.58     0  04:20      0.17    0.05    0.86
  YS02001765YS02001762 CONDUIT     34.05     0  02:52      0.22    0.03    0.82
  YS02001770YS02001767 CONDUIT     33.80     0  02:53      0.27    0.13    0.75
  YS02001774YS02001770 CONDUIT     15.27     0  02:41      0.13    0.01    0.77
  YS02001779YS02001774 CONDUIT      8.00     0  04:35      0.03    0.00    0.69
  YS02001649YS02001757 CONDUIT     87.11     0  03:16      0.14    0.05    0.92
  YS02001767YS02001765 CONDUIT     43.25     0  04:26      0.26    0.05    0.78
  YS02006561YS02001783 CONDUIT     91.65     0  03:03      1.29    0.05    0.20
  YS02001783YS02001784 CONDUIT     91.63     0  03:04      0.83    0.13    0.27
  YS02001784YS02001785 CONDUIT     92.68     0  03:04      0.84    0.22    0.27
  YS02001788YS02001790 CONDUIT     92.80     0  03:05      1.34    0.07    0.20
  YS02001790YS02001791 CONDUIT     92.95     0  03:05      1.52    0.10    0.18
  YS02001791YS02001793 CONDUIT     95.59     0  03:05      3.01    0.04    0.12
  YS02001910YS02001907 CONDUIT     28.66     0  03:04      0.49    0.02    0.55
  YS02001786YS02001788 CONDUIT     92.73     0  03:04      1.18    0.18    0.21
  YS02001915YS02001910 CONDUIT     28.69     0  03:01      0.44    0.01    0.34
  YS02001918YS02001915 CONDUIT     10.77     0  03:06      0.44    0.01    0.14
  YS02001923YS02001920 CONDUIT      7.92     0  03:03      0.22    0.00    0.09
  YS02001926YS02001923 CONDUIT      7.88     0  03:03      0.29    0.01    0.08
  YS02001929YS02001926 CONDUIT      7.86     0  03:01      0.30    0.00    0.07
  YS02001920YS02001918 CONDUIT     10.78     0  03:05      0.27    0.01    0.10
  YS02001629YS02163301 CONDUIT     24.77     0  02:57      0.07    0.03    0.71
  YS02001619YS02001622 CONDUIT     19.13     0  02:57      0.46    0.03    0.33
  YS02001622YS02001625 CONDUIT     21.43     0  02:56      0.15    0.01    0.49
  YS02001625YS02001629 CONDUIT     21.31     0  02:58      0.12    0.01    0.48
  YS02163301YS02001633 CONDUIT     24.16     0  02:57      0.06    0.02    0.76
  YS02163601YS02164001 CONDUIT     44.32     0  03:06      0.08    0.04    0.82
  YS02164001YS02001641 CONDUIT     44.57     0  03:06      0.09    0.06    0.80
  YS02001641YS02001644 CONDUIT     41.75     0  02:57      0.09    0.13    0.81
  YS02001647YS02001649 CONDUIT     60.11     0  02:57      0.13    0.03    0.74
  YS02006553YS02006556 CONDUIT     62.91     0  03:04      0.18    0.05    0.63
  YS02006556YS02006558 CONDUIT     62.94     0  03:06      0.11    0.05    0.66
  YSB6556YSB1171       CONDUIT      3.71     0  02:31      0.03    0.00    0.45
  YS02001907YS02006553 CONDUIT     62.83     0  03:04      0.10    0.07    0.72
  YS02006558YS02006561 CONDUIT     91.65     0  03:03      1.64    0.20    0.25
  YS02001633YS02163601 CONDUIT     45.12     0  03:06      0.09    0.05    0.81
  YS02001644YS02001647 CONDUIT     63.55     0  03:05      0.15    0.04    0.72
  YS02001745YS02001748 CONDUIT     19.76     0  03:01      0.98    0.01    0.06
  YS02001748YS02001751 CONDUIT     19.80     0  03:01      0.80    0.01    0.27
  YS02001751YS02001754 CONDUIT     49.33     0  04:50      0.75    0.02    0.48
  YS02001754YS02001757 CONDUIT     95.87     0  04:36      0.33    0.04    0.81
  YS02001882YS02001884 CONDUIT      1.43     0  02:12      0.06    0.00    0.27
  YS02001884YS02001887 CONDUIT      4.53     0  02:11      0.04    0.01    0.36
  YS02001890YS02001895 CONDUIT     34.29     0  02:59      0.15    0.02    0.34
  YS02001895YS02001898 CONDUIT     34.28     0  03:01      0.36    0.06    0.20
  YS02001898YS02001901 CONDUIT     34.32     0  03:03      0.19    0.02    0.28
  YS02001901YS02001904 CONDUIT     34.24     0  03:02      0.19    0.05    0.33
  YS02001904YS02001907 CONDUIT     34.35     0  03:04      0.09    0.01    0.49
  YS02001887YS02001890 CONDUIT     34.44     0  02:59      0.11    0.06    0.42
  YS02001652YS02001649 CONDUIT     35.67     0  04:16      0.23    0.02    0.75
  YS02001655YS02001652 CONDUIT     30.32     0  02:56      0.81    0.01    0.51
  YS02001658YS02001655 CONDUIT     24.20     0  03:00      0.91    0.01    0.25
  YS02001661YS02001658 CONDUIT     24.20     0  03:00      1.00    0.01    0.07
  YS02001664YS02001661 CONDUIT     24.20     0  02:59      0.59    0.01    0.10
  YSB1154YSB6556       CONDUIT      3.71     0  02:26      0.19    0.01    0.34
  YSB1174YSB1171       CONDUIT      3.56     0  02:18      0.02    0.01    0.46
  YSB1171HS02004479    CONDUIT      6.81     0  02:33      0.54    0.00    0.34
  HS02004881HS02006253 CONDUIT     10.81     0  02:31      1.01    0.00    0.02
  YS02001793JiankangQianchi CONDUIT     95.15     0  03:05      9.26    0.01    0.53
  YS02001757CaochengTiaoxuchi CONDUIT    142.70     0  03:11      0.47    0.06    0.61
  WSF200WS02003060     CONDUIT    285.78     0  03:23      1.52    0.06    0.22
  1                    CONDUIT    449.57     0  04:31      2.66    0.16    0.27
  2                    CONDUIT      0.00     0  00:00      0.00    0.00    0.00
  3                    CONDUIT    597.65     0  00:00     10.05    0.95    0.86
  4                    CONDUIT      0.00     0  00:00      0.00    0.00    0.00
  CC-Pump-1            PUMP       142.70     0  03:11              0.71
  CC-Pump-2            PUMP         0.00     0  00:00              0.00
  JK-Pump-1            PUMP       300.00     0  00:00              1.00
  JK-Pump-2            PUMP       300.00     0  00:00              1.00
  XR-Pump-1            PUMP         0.00     0  00:00              0.00
  XR-Pump-2            PUMP        95.00     0  00:20              1.00
  XR-Pump-3            PUMP        95.00     0  00:20              1.00
  XR-Pump-4            PUMP        95.00     0  00:20              1.00
  
  
  ***************************
  Flow Classification Summary
  ***************************
  
  -------------------------------------------------------------------------------------
                      Adjusted    ---------- Fraction of Time in Flow Class ---------- 
                       /Actual         Up    Down  Sub   Sup   Up    Down  Norm  Inlet 
  Conduit               Length    Dry  Dry   Dry   Crit  Crit  Crit  Crit  Ltd   Ctrl  
  -------------------------------------------------------------------------------------
  WS02003066WSF200        1.00   0.17  0.00  0.00  0.00  0.83  0.00  0.00  0.71  0.00
  WS02006287WS02006284    1.00   0.08  0.04  0.00  0.65  0.23  0.00  0.00  0.81  0.00
  WS02006284WS02006280    1.00   0.10  0.00  0.00  0.00  0.00  0.00  0.90  0.00  0.00
  WS02006280WS02006229    1.00   0.10  0.00  0.00  0.00  0.00  0.00  0.90  0.00  0.00
  WS02006229WS02006228    1.00   0.00  0.00  0.00  0.96  0.00  0.00  0.04  0.00  0.00
  WS02006256WS02006235    1.00   0.00  0.00  0.00  0.99  0.01  0.00  0.00  0.00  0.00
  WS02006253WS02006251    1.00   0.06  0.03  0.00  0.89  0.00  0.03  0.00  0.00  0.00
  WS02006252WS02006251    1.00   0.22  0.00  0.00  0.00  0.00  0.78  0.00  0.00  0.00
  WS02006251WS02006249    1.00   0.00  0.00  0.00  1.00  0.00  0.00  0.00  0.78  0.00
  WS02006249WS02006248    1.00   0.00  0.04  0.00  0.48  0.00  0.48  0.00  0.00  0.00
  WS02006248WS02006247    1.00   0.04  0.00  0.00  0.93  0.00  0.00  0.02  0.68  0.00
  WS02006247WS02006245    1.00   0.05  0.00  0.00  0.91  0.00  0.00  0.04  0.00  0.00
  WS02006245WS02006243    1.00   0.04  0.00  0.00  0.82  0.00  0.00  0.13  0.21  0.00
  WS02006243WS02006242    1.00   0.02  0.01  0.00  0.97  0.00  0.00  0.00  0.51  0.00
  WS02006242WS02006240    1.00   0.01  0.00  0.00  0.99  0.00  0.00  0.00  0.00  0.00
  WS02006240WS02006239    1.00   0.01  0.00  0.00  0.82  0.00  0.00  0.17  0.02  0.00
  WS02006239WS02006238    1.00   0.00  0.00  0.00  1.00  0.00  0.00  0.00  0.05  0.00
  WS02006238WS02006235    1.00   0.00  0.00  0.00  1.00  0.00  0.00  0.00  0.00  0.00
  WS02006235WS02006234    1.00   0.00  0.00  0.00  0.83  0.00  0.17  0.00  0.00  0.00
  WS02006234WS02006232    1.00   0.00  0.00  0.00  0.99  0.01  0.00  0.00  0.04  0.00
  WS02006232WS02006231    1.00   0.00  0.01  0.00  0.97  0.00  0.01  0.00  0.00  0.00
  WS02006231WS02006230    1.00   0.01  0.00  0.00  0.00  0.00  0.99  0.00  0.00  0.00
  WS02006230WS02006229    1.00   0.00  0.00  0.00  0.96  0.00  0.00  0.04  0.01  0.00
  WS02006228WS02006109    1.00   0.00  0.00  0.00  0.99  0.00  0.00  0.01  0.00  0.00
  WS02006116WS02004401    1.00   0.05  0.00  0.00  0.95  0.00  0.00  0.00  0.00  0.00
  WS02006115WS02006116    1.00   0.05  0.00  0.00  0.92  0.00  0.00  0.03  0.01  0.00
  WS02006113WS02006111    1.00   0.04  0.00  0.00  0.00  0.96  0.00  0.00  0.14  0.00
  WS02006112WS02006115    1.00   0.04  0.01  0.00  0.95  0.00  0.00  0.00  0.00  0.00
  WS02006111WS02006112    1.00   0.04  0.00  0.00  0.95  0.00  0.00  0.00  0.98  0.00
  WS02006110WS02006113    1.00   0.04  0.01  0.00  0.96  0.00  0.00  0.00  0.00  0.00
  WS02006109WS02006110    1.00   0.00  0.04  0.00  0.96  0.00  0.01  0.00  0.00  0.00
  WS02004411WS02004412    1.00   0.12  0.00  0.00  0.88  0.00  0.00  0.00  0.00  0.00
  WS02004401WS02004402    1.00   0.05  0.00  0.00  0.95  0.00  0.00  0.00  0.00  0.00
  WS02004413WS02003067    1.00   0.12  0.03  0.00  0.00  0.00  0.85  0.00  0.00  0.00
  WS02004412WS02004413    1.00   0.12  0.00  0.00  0.88  0.00  0.00  0.00  0.03  0.00
  WS02004410WS02004411    1.00   0.12  0.00  0.00  0.88  0.00  0.00  0.00  0.01  0.00
  WS02004409WS02004410    1.00   0.12  0.00  0.00  0.88  0.00  0.00  0.00  0.01  0.00
  WS02004407WS02004409    1.00   0.12  0.00  0.00  0.88  0.00  0.00  0.00  0.80  0.00
  WS02004406WS02004407    1.00   0.00  0.11  0.00  0.88  0.00  0.00  0.00  0.00  0.00
  WS02004405WS02004406    1.00   0.00  0.00  0.00  1.00  0.00  0.00  0.00  0.02  0.00
  WS02004404WS02004405    1.00   0.00  0.00  0.00  1.00  0.00  0.00  0.00  0.00  0.00
  WS02004403WS02004404    1.00   0.00  0.05  0.00  0.95  0.00  0.00  0.00  0.02  0.00
  WS02004402WS02004403    1.00   0.05  0.00  0.00  0.95  0.00  0.00  0.00  0.00  0.00
  WS02004139WS02001211    1.00   0.00  0.02  0.00  0.98  0.00  0.00  0.00  0.00  0.00
  WS02004138WS02004139    1.00   0.04  0.00  0.00  0.95  0.01  0.00  0.00  0.98  0.00
  WS02003067WS02003066    1.00   0.15  0.01  0.00  0.84  0.00  0.00  0.00  0.00  0.00
  WS02001213WS02003059    1.00   0.01  0.02  0.00  0.97  0.00  0.00  0.00  0.00  0.00
  WS02001212WS02001213    1.00   0.05  0.00  0.00  0.25  0.00  0.70  0.00  0.00  0.00
  WS02001211WS02001212    1.00   0.00  0.05  0.00  0.95  0.00  0.00  0.00  0.00  0.00
  WS02003072WS02003073    1.00   0.00  0.00  0.00  0.00  0.00  0.00  1.00  0.00  0.00
  WS02003069WS02003072    1.00   0.00  0.00  0.00  0.98  0.02  0.00  0.00  0.86  0.00
  WS02003060WS02003069    1.00   0.00  0.00  0.00  0.97  0.03  0.00  0.00  0.10  0.00
  WS02003059WS02003060    1.00   0.00  0.00  0.00  0.99  0.01  0.00  0.00  0.03  0.00
  HS02004901HS02004770    1.00   0.09  0.00  0.00  0.90  0.00  0.00  0.00  0.03  0.00
  HS02004876HS02004881    1.00   0.04  0.00  0.00  0.96  0.00  0.00  0.00  0.00  0.00
  HS02004870HS02004876    1.00   0.02  0.00  0.00  0.98  0.00  0.00  0.00  0.95  0.00
  HS02004842HS02004848    1.00   0.00  0.10  0.00  0.90  0.00  0.00  0.00  0.73  0.00
  HS02004837HS02004842    1.00   0.00  0.00  0.00  0.97  0.03  0.00  0.00  0.11  0.00
  HS02004830HS02004837    1.00   0.00  0.00  0.00  0.99  0.01  0.00  0.00  0.99  0.00
  HS02004824HS02004830    1.00   0.00  0.00  0.00  1.00  0.00  0.00  0.00  0.00  0.00
  HS02004817HS02004824    1.00   0.00  0.00  0.00  1.00  0.00  0.00  0.00  1.00  0.00
  HS02004770HS02004777    1.00   0.00  0.09  0.00  0.90  0.00  0.00  0.00  0.08  0.00
  HS02004799HS02004480    1.00   0.01  0.04  0.00  0.87  0.00  0.08  0.00  0.00  0.00
  HS02004792HS02004799    1.00   0.00  0.00  0.00  0.97  0.03  0.00  0.00  0.98  0.00
  HS02004788HS02004792    1.00   0.00  0.00  0.00  0.96  0.04  0.00  0.00  0.98  0.00
  HS02004785HS02004788    1.00   0.00  0.00  0.00  1.00  0.00  0.00  0.00  0.00  0.00
  HS02004777HS02004785    1.00   0.00  0.00  0.00  1.00  0.00  0.00  0.00  0.23  0.00
  HS02004480HS02004478    1.00   0.11  0.00  0.00  0.66  0.00  0.00  0.24  0.00  0.00
  HS02004479HS02004480    1.00   0.05  0.00  0.00  0.95  0.00  0.00  0.00  0.17  0.00
  HS02004862HS02004870    1.00   0.00  0.00  0.00  1.00  0.00  0.00  0.00  0.05  0.00
  HS02004848HS02004852    1.00   0.10  0.00  0.00  0.90  0.00  0.00  0.00  0.68  0.00
  HS02004856HS02004862    1.00   0.00  0.16  0.00  0.84  0.00  0.00  0.00  0.72  0.00
  HS02004852HS02004856    1.00   0.09  0.02  0.00  0.89  0.00  0.00  0.00  0.82  0.00
  HS02004802HS02004478    1.00   0.10  0.02  0.00  0.89  0.00  0.00  0.00  0.00  0.00
  HS02004478WS02006287    1.00   0.12  0.00  0.00  0.88  0.00  0.00  0.00  0.81  0.00
  HS02004817HS02004807    1.00   0.00  0.10  0.00  0.90  0.00  0.00  0.00  0.00  0.00
  HS02004807HS02004802    1.00   0.10  0.00  0.00  0.90  0.00  0.00  0.00  0.01  0.00
  YS02001759YS02001757    1.00   0.00  0.00  0.00  1.00  0.00  0.00  0.00  0.17  0.00
  YS02001762YS02001759    1.00   0.00  0.01  0.00  0.99  0.00  0.00  0.00  0.06  0.00
  YS02001765YS02001762    1.00   0.00  0.00  0.00  1.00  0.00  0.00  0.00  0.24  0.00
  YS02001770YS02001767    1.00   0.00  0.00  0.00  1.00  0.00  0.00  0.00  0.00  0.00
  YS02001774YS02001770    1.00   0.01  0.11  0.00  0.88  0.00  0.00  0.00  0.07  0.00
  YS02001779YS02001774    1.00   0.00  0.00  0.00  1.00  0.00  0.00  0.00  0.29  0.00
  YS02001649YS02001757    1.00   0.00  0.00  0.00  1.00  0.00  0.00  0.00  0.20  0.00
  YS02001767YS02001765    1.00   0.00  0.00  0.00  1.00  0.00  0.00  0.00  0.01  0.00
  YS02006561YS02001783    1.00   0.16  0.00  0.00  0.00  0.84  0.00  0.00  0.71  0.00
  YS02001783YS02001784    1.00   0.00  0.16  0.00  0.84  0.00  0.00  0.00  0.33  0.00
  YS02001784YS02001785    1.00   0.00  0.00  0.00  1.00  0.00  0.00  0.00  0.27  0.00
  YS02001788YS02001790    1.00   0.00  0.00  0.00  0.17  0.83  0.00  0.00  0.99  0.00
  YS02001790YS02001791    1.00   0.00  0.00  0.00  0.04  0.96  0.00  0.00  0.13  0.00
  YS02001791YS02001793    1.00   0.00  0.00  0.00  0.00  1.00  0.00  0.00  0.00  0.00
  YS02001910YS02001907    1.00   0.00  0.00  0.00  0.95  0.00  0.00  0.04  0.13  0.00
  YS02001786YS02001788    1.00   0.00  0.00  0.00  0.32  0.68  0.00  0.00  0.00  0.00
  YS02001915YS02001910    1.00   0.00  0.00  0.00  0.99  0.01  0.00  0.00  0.26  0.00
  YS02001918YS02001915    1.00   0.00  0.02  0.00  0.97  0.01  0.00  0.00  0.79  0.00
  YS02001923YS02001920    1.00   0.00  0.00  0.00  1.00  0.00  0.00  0.00  1.00  0.00
  YS02001926YS02001923    1.00   0.00  0.07  0.00  0.00  0.00  0.93  0.00  0.00  0.00
  YS02001929YS02001926    1.00   0.00  0.09  0.00  0.91  0.00  0.00  0.00  0.86  0.00
  YS02001920YS02001918    1.00   0.00  0.02  0.00  0.98  0.00  0.00  0.00  0.00  0.00
  YS02001629YS02163301    1.00   0.14  0.01  0.00  0.85  0.00  0.00  0.00  0.00  0.00
  YS02001619YS02001622    1.00   0.09  0.00  0.00  0.91  0.00  0.00  0.00  0.00  0.00
  YS02001622YS02001625    1.00   0.10  0.00  0.00  0.90  0.00  0.00  0.00  0.16  0.00
  YS02001625YS02001629    1.00   0.10  0.07  0.00  0.78  0.00  0.04  0.00  0.00  0.00
  YS02163301YS02001633    1.00   0.00  0.14  0.00  0.86  0.00  0.00  0.00  0.00  0.00
  YS02163601YS02164001    1.00   0.00  0.07  0.00  0.93  0.00  0.00  0.00  0.00  0.00
  YS02164001YS02001641    1.00   0.03  0.04  0.00  0.93  0.00  0.00  0.00  0.07  0.00
  YS02001641YS02001644    1.00   0.00  0.02  0.00  0.98  0.00  0.00  0.00  0.00  0.00
  YS02001647YS02001649    1.00   0.00  0.16  0.00  0.84  0.00  0.00  0.00  0.01  0.00
  YS02006553YS02006556    1.00   0.04  0.00  0.00  0.96  0.00  0.00  0.00  0.03  0.00
  YS02006556YS02006558    1.00   0.00  0.01  0.00  0.99  0.00  0.00  0.00  0.00  0.00
  YSB6556YSB1171          1.00   0.05  0.04  0.00  0.91  0.00  0.00  0.00  0.00  0.00
  YS02001907YS02006553    1.00   0.01  0.04  0.00  0.95  0.00  0.00  0.00  0.00  0.00
  YS02006558YS02006561    1.00   0.16  0.00  0.00  0.00  0.84  0.00  0.00  0.69  0.00
  YS02001633YS02163601    1.00   0.00  0.03  0.00  0.97  0.00  0.00  0.00  0.20  0.00
  YS02001644YS02001647    1.00   0.00  0.16  0.00  0.84  0.00  0.00  0.00  0.00  0.00
  YS02001745YS02001748    1.00   0.00  0.00  0.00  0.05  0.02  0.00  0.93  0.13  0.00
  YS02001748YS02001751    1.00   0.00  0.00  0.00  0.93  0.07  0.00  0.00  0.61  0.00
  YS02001751YS02001754    1.00   0.00  0.00  0.00  0.82  0.00  0.00  0.18  0.04  0.00
  YS02001754YS02001757    1.00   0.00  0.00  0.00  0.98  0.02  0.00  0.00  0.29  0.00
  YS02001882YS02001884    1.00   0.13  0.01  0.00  0.86  0.00  0.00  0.00  0.00  0.00
  YS02001884YS02001887    1.00   0.06  0.02  0.00  0.91  0.00  0.00  0.00  0.00  0.00
  YS02001890YS02001895    1.00   0.01  0.14  0.00  0.85  0.00  0.00  0.00  0.00  0.00
  YS02001895YS02001898    1.00   0.15  0.00  0.00  0.83  0.00  0.02  0.00  0.00  0.00
  YS02001898YS02001901    1.00   0.14  0.01  0.00  0.85  0.00  0.00  0.00  0.02  0.00
  YS02001901YS02001904    1.00   0.14  0.00  0.00  0.86  0.00  0.00  0.00  0.00  0.00
  YS02001904YS02001907    1.00   0.01  0.13  0.00  0.86  0.00  0.00  0.00  0.00  0.00
  YS02001887YS02001890    1.00   0.00  0.01  0.00  0.95  0.00  0.04  0.00  0.00  0.00
  YS02001652YS02001649    1.00   0.00  0.00  0.00  1.00  0.00  0.00  0.00  0.28  0.00
  YS02001655YS02001652    1.00   0.00  0.00  0.00  0.82  0.00  0.00  0.18  0.04  0.00
  YS02001658YS02001655    1.00   0.00  0.13  0.00  0.80  0.07  0.00  0.00  0.62  0.00
  YS02001661YS02001658    1.00   0.13  0.00  0.00  0.08  0.79  0.00  0.00  0.73  0.00
  YS02001664YS02001661    1.00   0.09  0.00  0.00  0.91  0.00  0.00  0.00  0.86  0.00
  YSB1154YSB6556          1.00   0.09  0.00  0.00  0.91  0.00  0.00  0.00  0.02  0.00
  YSB1174YSB1171          1.00   0.06  0.02  0.00  0.92  0.00  0.00  0.00  0.00  0.00
  YSB1171HS02004479       1.00   0.05  0.00  0.00  0.94  0.00  0.00  0.01  0.13  0.00
  HS02004881HS02006253    1.00   0.06  0.00  0.00  0.00  0.11  0.00  0.83  0.04  0.00
  YS02001793JiankangQianchi    1.00   0.00  0.01  0.00  0.15  0.84  0.00  0.00  0.14  0.00
  YS02001757CaochengTiaoxuchi    1.00   0.00  0.22  0.00  0.78  0.00  0.00  0.00  0.00  0.00
  WSF200WS02003060        1.00   0.00  0.17  0.00  0.46  0.38  0.00  0.00  0.55  0.00
  1                       1.00   0.00  0.00  0.00  0.00  1.00  0.00  0.00  0.15  0.00
  2                       1.00   1.00  0.00  0.00  0.00  0.00  0.00  0.00  0.00  0.00
  3                       1.00   0.84  0.00  0.00  0.00  0.16  0.00  0.00  0.14  0.00
  4                       1.00   1.00  0.00  0.00  0.00  0.00  0.00  0.00  0.00  0.00
  
  
  *************************
  Conduit Surcharge Summary
  *************************
  
  ----------------------------------------------------------------------------
                                                           Hours        Hours 
                         --------- Hours Full --------   Above Full   Capacity
  Conduit                Both Ends  Upstream  Dnstream   Normal Flow   Limited
  ----------------------------------------------------------------------------
  WS02006256WS02006235        2.93      2.93      7.47      1.45         0.01
  WS02006247WS02006245        0.01      0.01      0.01      0.85         0.01
  WS02006235WS02006234        0.01      0.01      0.01      2.58         0.01
  WS02006231WS02006230        0.01      0.01      0.01      4.23         0.01
  WS02006230WS02006229        0.01      0.01      0.01      5.02         0.01
  WS02006228WS02006109        0.01      0.01      0.01      1.08         0.01
  WS02004404WS02004405        0.01      0.01      0.01      3.36         0.01
  YS02001793JiankangQianchi        0.01      0.01      0.37      0.01         0.01
  3                           0.01      0.01      0.01      0.01         0.01
  
  
  ***************
  Pumping Summary
  ***************
  
  ---------------------------------------------------------------------------------------------------------
                                                  Min       Avg       Max     Total     Power    % Time Off
                        Percent   Number of      Flow      Flow      Flow    Volume     Usage    Pump Curve
  Pump                 Utilized   Start-Ups       LPS       LPS       LPS  10^6 ltr     Kw-hr    Low   High
  ---------------------------------------------------------------------------------------------------------
  CC-Pump-1               19.65           1      0.00    121.50    142.70     0.652      2.70    0.0  100.0
  CC-Pump-2                0.00           0      0.00      0.00      0.00     0.000      0.00    0.0    0.0
  JK-Pump-1               89.36           2      0.00     80.40    300.00     1.158     21.15    0.0    0.0
  JK-Pump-2               72.34           2      0.00     55.62    300.00     0.655     12.02    0.0    0.0
  XR-Pump-1                0.00           0      0.00      0.00      0.00     0.000      0.00    0.0    0.0
  XR-Pump-2               53.19           1      0.00     91.41     95.00     1.368     18.36    0.0    0.0
  XR-Pump-3               70.21           2      0.00     87.64     95.00     1.795     13.37    0.0    0.0
  XR-Pump-4               82.97           2      0.00     85.68     95.00     2.137     19.59    0.0    0.0
  

  Analysis begun on:  Tue Dec 21 16:26:28 2021
  Analysis ended on:  Tue Dec 21 16:26:29 2021
  Total elapsed time: 00:00:01