
  EPA STORM WATER MANAGEMENT MODEL - VERSION 5.1 (Build 5.3.0.dev0)
  --------------------------------------------------------------

  WARNING 04: minimum elevation drop used for Conduit WS02004404WS02004405
  WARNING 03: negative offset ignored for Link YS02001904YS02001907
  
  *********************************************************
  NOTE: The summary statistics displayed in this report are
  based on results found at every computational time step,  
  not just on results from each reporting time step.
  *********************************************************
  
  ****************
  Analysis Options
  ****************
  Flow Units ............... LPS
  Process Models:
    Rainfall/Runoff ........ YES
    RDII ................... NO
    Snowmelt ............... NO
    Groundwater ............ NO
    Flow Routing ........... YES
    Ponding Allowed ........ NO
    Water Quality .......... NO
  Infiltration Method ...... HORTON
  Flow Routing Method ...... DYNWAVE
  Surcharge Method ......... EXTRAN
  Starting Date ............ 08/28/2015 08:00:00
  Ending Date .............. 08/28/2015 15:50:00
  Antecedent Dry Days ...... 8.0
  Report Time Step ......... 00:01:00
  Wet Time Step ............ 00:01:00
  Dry Time Step ............ 00:01:00
  Routing Time Step ........ 5.00 sec
  Variable Time Step ....... YES
  Maximum Trials ........... 8
  Number of Threads ........ 4
  Head Tolerance ........... 0.001500 m
  
  
  **************************        Volume         Depth
  Runoff Quantity Continuity     hectare-m            mm
  **************************     ---------       -------
  Total Precipitation ......         5.556        12.164
  Evaporation Loss .........         0.000         0.000
  Infiltration Loss ........         1.427         3.124
  Surface Runoff ...........         3.072         6.726
  Final Storage ............         1.058         2.316
  Continuity Error (%) .....        -0.016
  
  
  **************************        Volume        Volume
  Flow Routing Continuity        hectare-m      10^6 ltr
  **************************     ---------     ---------
  Dry Weather Inflow .......         0.616         6.165
  Wet Weather Inflow .......         3.071        30.709
  Groundwater Inflow .......         0.000         0.000
  RDII Inflow ..............         0.000         0.000
  External Inflow ..........         0.102         1.024
  External Outflow .........         1.698        16.979
  Flooding Loss ............         1.513        15.128
  Evaporation Loss .........         0.000         0.000
  Exfiltration Loss ........         0.000         0.000
  Initial Stored Volume ....         0.076         0.761
  Final Stored Volume ......         0.676         6.757
  Continuity Error (%) .....        -0.534
  
  
  *************************
  Highest Continuity Errors
  *************************
  Node HS02004842 (16.24%)
  Node YS02001884 (11.46%)
  Node YSB1171 (3.12%)
  Node HS02004817 (2.99%)
  Node YS02001774 (2.73%)
  
  
  ***************************
  Time-Step Critical Elements
  ***************************
  Link WS02006252WS02006251 (59.28%)
  Link 3 (33.37%)
  Link WS02006280WS02006229 (1.51%)
  Link WS02006238WS02006235 (1.41%)
  
  
  ********************************
  Highest Flow Instability Indexes
  ********************************
  Link WS02006113WS02006111 (43)
  Link YS02163301YS02001633 (40)
  Link YS02163601YS02164001 (40)
  Link YS02001629YS02163301 (40)
  Link YS02001619YS02001622 (39)
  
  
  *************************
  Routing Time Step Summary
  *************************
  Minimum Time Step           :     0.50 sec
  Average Time Step           :     0.80 sec
  Maximum Time Step           :     5.00 sec
  Percent in Steady State     :    -0.00
  Average Iterations per Step :     4.46
  Percent Not Converging      :    19.99
  
  
  ***************************
  Subcatchment Runoff Summary
  ***************************
  
  ------------------------------------------------------------------------------------------------------------------------------
                            Total      Total      Total      Total     Imperv       Perv      Total       Total     Peak  Runoff
                           Precip      Runon       Evap      Infil     Runoff     Runoff     Runoff      Runoff   Runoff   Coeff
  Subcatchment                 mm         mm         mm         mm         mm         mm         mm    10^6 ltr      LPS
  ------------------------------------------------------------------------------------------------------------------------------
  sub0                      12.16       0.00       0.00       0.85      10.05       0.00      10.05        0.01     1.91   0.826
  sub1                      12.16       0.00       0.00       1.34       9.56       0.00       9.56        0.06    14.15   0.786
  sub2                      12.16       0.00       0.00       4.50       6.75       0.00       6.75        0.06    13.75   0.555
  sub3                      12.16       0.00       0.00       4.50       6.71       0.00       6.71        0.15    32.07   0.552
  sub4                      12.16       0.00       0.00       1.34       9.40       0.00       9.40        0.20    40.20   0.773
  sub5                      12.16       0.00       0.00       0.85       9.99       0.00       9.99        0.11    25.19   0.822
  sub7                      12.16       0.00       0.00       1.09       9.81       0.00       9.81        0.03     7.55   0.807
  sub8                      12.16       0.00       0.00       1.09       9.80       0.00       9.80        0.06    14.17   0.806
  sub9                      12.16       0.00       0.00       1.09       9.80       0.00       9.80        0.05    10.64   0.806
  sub10                     12.16       0.00       0.00       0.97       9.89       0.00       9.89        0.11    24.40   0.813
  sub11                     12.16       0.00       0.00       0.97       9.91       0.00       9.91        0.12    26.15   0.815
  sub12                     12.16       0.00       0.00       1.58       9.39       0.00       9.39        0.08    19.06   0.772
  sub14                     12.16       0.00       0.00       1.09       9.80       0.00       9.80        0.09    21.02   0.805
  sub15                     12.16       0.00       0.00       3.65       7.53       0.00       7.53        0.13    29.11   0.619
  sub16                     12.16       0.00       0.00       4.01       7.23       0.00       7.23        0.08    17.47   0.594
  sub17                     12.16       0.00       0.00       3.89       7.34       0.00       7.34        0.06    14.47   0.603
  sub22                     12.16       0.00       0.00       5.23       6.14       0.00       6.14        0.39    88.27   0.505
  sub23                     12.16       0.00       0.00       4.50       6.79       0.00       6.79        0.32    73.89   0.558
  sub60                     12.16       0.00       0.00       1.46       7.71       0.00       7.71        2.34   297.17   0.634
  sub61                     12.16       0.00       0.00       2.07       7.87       0.00       7.87        2.43   359.80   0.647
  sub62                     12.16       0.00       0.00       0.97       8.55       0.00       8.55        2.63   372.87   0.703
  sub63                     12.16       0.00       0.00       3.53       6.89       0.00       6.89        2.09   327.80   0.567
  sub64                     12.16       0.00       0.00       1.82       7.40       0.00       7.40        2.25   282.66   0.608
  sub65                     12.16       0.00       0.00       1.58       7.52       0.00       7.52        2.31   287.20   0.618
  sub66                     12.16       0.00       0.00       3.53       6.36       0.00       6.36        1.95   257.27   0.523
  sub67                     12.16       0.00       0.00       0.97       9.05       0.00       9.05        2.79   452.90   0.744
  sub68                     12.16       0.00       0.00       1.70       8.28       0.00       8.28        2.55   391.99   0.681
  sub69                     12.16       0.00       0.00       1.82       8.61       0.00       8.61        2.01   355.79   0.708
  sub70                     12.16       8.79       0.00       7.03      11.43       0.10      11.53        2.64   335.00   0.550
  sub71                     12.16       0.00       0.00       0.97       8.31       0.00       8.31        1.96   263.63   0.683
  sub72                     12.16       0.00       0.00       0.85       6.56       0.00       6.56        1.34   129.40   0.540
  sub73                     12.16      11.23       0.00       7.88      12.47       0.08      12.54        2.95   300.52   0.536
  sub74                     12.16       0.00       0.00       9.12       2.57       0.00       2.57        1.03   189.59   0.211
  
  
  ******************
  Node Depth Summary
  ******************
  
  ---------------------------------------------------------------------------------
                                 Average  Maximum  Maximum  Time of Max    Reported
                                   Depth    Depth      HGL   Occurrence   Max Depth
  Node                 Type       Meters   Meters   Meters  days hr:min      Meters
  ---------------------------------------------------------------------------------
  WS02001211           JUNCTION     0.66     0.71     5.54     0  05:27        0.71
  WS02001212           JUNCTION     0.39     0.42     5.49     0  05:26        0.42
  WS02001213           JUNCTION     0.62     0.68     5.45     0  03:08        0.68
  WS02003069           JUNCTION     0.44     0.56     5.14     0  03:07        0.56
  WS02003072           JUNCTION     0.50     0.62     4.99     0  03:08        0.62
  WS02003073           JUNCTION     0.30     0.38     4.44     0  03:08        0.38
  WS02003060           JUNCTION     0.39     0.49     5.42     0  03:06        0.49
  WS02003066           JUNCTION     0.23     0.33     5.88     0  03:06        0.33
  WS02003059           JUNCTION     0.68     0.75     5.44     0  03:07        0.75
  WS02003067           JUNCTION     0.57     0.74     6.06     0  03:06        0.74
  WS02004401           JUNCTION     0.67     0.97     6.97     0  03:03        0.97
  WS02004402           JUNCTION     0.70     0.99     6.95     0  03:04        0.99
  WS02004403           JUNCTION     0.72     0.99     6.92     0  03:04        0.99
  WS02004404           JUNCTION     0.80     1.05     6.90     0  03:04        1.05
  WS02004406           JUNCTION     0.80     1.03     6.86     0  03:04        1.03
  WS02004409           JUNCTION     0.49     0.75     6.52     0  03:04        0.75
  WS02004410           JUNCTION     0.51     0.76     6.48     0  03:05        0.76
  WS02004411           JUNCTION     0.52     0.76     6.44     0  03:05        0.76
  WS02004412           JUNCTION     0.54     0.76     6.40     0  03:05        0.76
  WS02004413           JUNCTION     0.69     0.91     6.38     0  03:05        0.91
  WS02004405           JUNCTION     0.79     1.04     6.89     0  03:04        1.04
  WS02006109           JUNCTION     0.75     1.10     7.72     0  03:02        1.08
  WS02006110           JUNCTION     0.74     1.01     7.60     0  03:03        1.00
  WS02006111           JUNCTION     0.22     0.35     7.06     0  03:02        0.35
  WS02006112           JUNCTION     0.84     1.19     7.07     0  03:10        1.18
  WS02006113           JUNCTION     0.33     0.51     7.40     0  03:03        0.51
  WS02006115           JUNCTION     0.56     0.88     7.02     0  03:03        0.88
  WS02006116           JUNCTION     0.64     0.96     7.00     0  03:03        0.95
  WS02006230           JUNCTION     0.71     1.16     7.90     0  03:02        1.16
  WS02006231           JUNCTION     0.48     0.81     7.94     0  03:02        0.81
  WS02006232           JUNCTION     0.61     0.93     7.97     0  03:02        0.93
  WS02006234           JUNCTION     0.52     0.84     8.00     0  03:02        0.84
  WS02006235           JUNCTION     0.55     0.86     8.03     0  03:02        0.86
  WS02006238           JUNCTION     0.58     0.89     8.03     0  03:02        0.88
  WS02006240           JUNCTION     0.48     0.77     8.07     0  03:02        0.77
  WS02006242           JUNCTION     0.55     0.82     8.09     0  03:02        0.82
  WS02006243           JUNCTION     0.43     0.70     8.12     0  03:02        0.70
  WS02006245           JUNCTION     0.41     0.65     8.14     0  03:02        0.65
  WS02006247           JUNCTION     0.44     0.65     8.15     0  03:02        0.65
  WS02006248           JUNCTION     0.38     0.57     8.16     0  03:02        0.57
  WS02006249           JUNCTION     0.41     0.58     8.18     0  03:02        0.58
  WS02006239           JUNCTION     0.53     0.84     8.05     0  03:02        0.84
  WS02006251           JUNCTION     0.40     0.60     8.27     0  05:10        0.59
  WS02006252           JUNCTION     0.33     0.59     8.83     0  05:09        0.58
  WS02006253           JUNCTION     0.43     0.63     8.27     0  05:10        0.62
  WS02006256           JUNCTION     0.89     1.20     8.13     0  06:10        1.20
  WS02004138           JUNCTION     0.15     0.17     7.42     0  04:03        0.17
  WS02004407           JUNCTION     0.22     0.33     6.64     0  03:04        0.33
  WS02006228           JUNCTION     0.75     1.17     7.82     0  03:02        1.16
  WS02006229           JUNCTION     0.73     1.17     7.87     0  03:02        1.17
  WS02006280           JUNCTION     0.07     0.19     8.46     0  03:02        0.19
  WS02006284           JUNCTION     0.37     0.55     8.95     0  03:02        0.55
  WS02006287           JUNCTION     0.10     0.28     9.24     0  03:01        0.28
  WSF200               JUNCTION     0.22     0.34     5.58     0  03:06        0.34
  HS02004901           JUNCTION     0.13     0.28    10.10     0  03:01        0.28
  HS02004881           JUNCTION     0.01     0.04     9.07     0  03:01        0.04
  HS02004876           JUNCTION     0.05     0.12     9.15     0  03:01        0.12
  HS02004870           JUNCTION     0.02     0.06     9.35     0  03:01        0.06
  HS02004862           JUNCTION     0.02     0.07     9.46     0  03:01        0.07
  HS02004856           JUNCTION     0.08     0.13     9.55     0  03:01        0.13
  HS02004852           JUNCTION     0.01     0.05     9.56     0  03:01        0.05
  HS02004848           JUNCTION     0.01     0.05     9.65     0  03:01        0.05
  HS02004842           JUNCTION     0.33     0.38     9.65     0  03:01        0.38
  HS02004837           JUNCTION     0.03     0.07     9.65     0  03:01        0.07
  HS02004830           JUNCTION     0.04     0.08     9.55     0  03:01        0.08
  HS02004824           JUNCTION     0.02     0.06     9.46     0  03:01        0.06
  HS02004817           JUNCTION     0.44     0.60     9.44     0  03:01        0.60
  HS02004807           JUNCTION     0.13     0.27     9.44     0  03:01        0.27
  HS02004802           JUNCTION     0.17     0.30     9.43     0  03:01        0.30
  HS02004799           JUNCTION     0.13     0.33     9.54     0  03:01        0.33
  HS02004792           JUNCTION     0.04     0.14     9.66     0  03:01        0.14
  HS02004788           JUNCTION     0.03     0.10    10.00     0  03:01        0.10
  HS02004785           JUNCTION     0.05     0.17    10.07     0  03:01        0.17
  HS02004777           JUNCTION     0.15     0.30    10.10     0  03:01        0.30
  HS02004770           JUNCTION     0.12     0.27    10.10     0  03:01        0.27
  HS02004480           JUNCTION     0.09     0.26     9.50     0  03:01        0.26
  HS02004479           JUNCTION     0.12     0.30     9.50     0  03:01        0.30
  HS02004478           JUNCTION     0.07     0.18     9.41     0  03:01        0.18
  YS02001745           JUNCTION     0.69     0.88     8.39     0  03:27        0.87
  YS02001748           JUNCTION     1.08     2.27     9.35     0  02:41        1.31
  YS02001751           JUNCTION     1.26     2.17     9.05     0  02:42        1.52
  YS02001754           JUNCTION     1.51     2.11     8.72     0  02:42        1.80
  YS02001762           JUNCTION     1.71     2.03     8.43     0  03:08        2.02
  YS02001765           JUNCTION     1.67     1.98     8.43     0  03:19        1.97
  YS02001767           JUNCTION     1.63     1.93     8.42     0  03:19        1.92
  YS02001770           JUNCTION     1.63     1.92     8.42     0  02:42        1.90
  YS02001774           JUNCTION     1.70     1.99     8.41     0  02:42        1.96
  YS02001779           JUNCTION     1.44     1.68     8.37     0  02:40        1.68
  YS02001882           JUNCTION     0.53     1.61     8.33     0  02:52        1.60
  YS02001884           JUNCTION     0.62     1.71     8.33     0  02:59        1.70
  YS02001759           JUNCTION     1.75     2.07     8.43     0  02:42        2.06
  YS02001887           JUNCTION     0.70     1.79     8.33     0  03:00        1.78
  YS02001890           JUNCTION     0.73     1.80     8.31     0  02:59        1.80
  YS02001898           JUNCTION     0.50     1.55     8.29     0  03:00        1.54
  YS02001901           JUNCTION     0.61     1.67     8.28     0  02:52        1.66
  YS02001904           JUNCTION     0.59     1.64     8.27     0  02:58        1.63
  YS02001907           JUNCTION     0.92     1.96     8.25     0  02:52        1.96
  YS02001910           JUNCTION     0.71     1.78     8.29     0  02:54        1.77
  YS02001915           JUNCTION     0.51     1.59     8.31     0  02:53        1.57
  YS02001918           JUNCTION     0.26     1.27     8.34     0  02:53        1.26
  YS02001619           JUNCTION     1.23     1.61     8.54     0  02:34        1.47
  YS02001629           JUNCTION     1.58     1.85     8.40     0  02:36        1.84
  YS02001641           JUNCTION     1.68     1.95     8.39     0  02:44        1.93
  YS02001644           JUNCTION     1.68     1.92     8.35     0  02:43        1.92
  YS02001652           JUNCTION     1.53     2.14     8.74     0  02:55        1.90
  YS02001655           JUNCTION     1.29     2.20     9.05     0  02:57        1.72
  YS02001920           JUNCTION     0.36     1.34     8.35     0  02:53        1.33
  YS02001923           JUNCTION     0.20     1.10     8.36     0  02:53        1.08
  YS02001926           JUNCTION     0.26     0.91     8.36     0  02:53        0.89
  YS02001929           JUNCTION     0.14     0.69     8.38     0  02:53        0.67
  YS02001658           JUNCTION     1.02     2.30     9.44     0  02:57        1.60
  YS02001661           JUNCTION     0.80     2.45     9.86     0  02:57        1.69
  YS02001664           JUNCTION     0.35     0.57     8.50     0  02:53        0.57
  YS02001622           JUNCTION     1.25     1.62     8.52     0  02:34        1.49
  YS02001633           JUNCTION     1.67     1.99     8.45     0  02:41        1.94
  YS02001649           JUNCTION     1.72     2.05     8.44     0  02:54        2.05
  YS02001757           JUNCTION     1.84     2.18     8.44     0  02:42        2.16
  YS02001895           JUNCTION     0.49     1.56     8.30     0  02:59        1.55
  YS02001625           JUNCTION     1.53     1.78     8.38     0  02:36        1.78
  YS02163301           JUNCTION     1.61     1.92     8.43     0  02:41        1.87
  YS02163601           JUNCTION     1.72     2.03     8.43     0  02:43        1.98
  YS02164001           JUNCTION     1.66     1.96     8.41     0  02:43        1.91
  YS02001647           JUNCTION     1.51     1.80     8.41     0  02:57        1.78
  YSB1154              JUNCTION     0.26     0.45     9.51     0  03:01        0.45
  YSB6556              JUNCTION     0.16     0.34     9.51     0  03:01        0.34
  YSB1174              JUNCTION     0.22     0.40     9.51     0  03:01        0.40
  YSB1171              JUNCTION     0.41     0.60     9.51     0  03:01        0.60
  YS02006553           JUNCTION     0.92     1.96     8.25     0  02:58        1.96
  YS02006561           JUNCTION     0.30     1.08     7.74     0  02:52        1.07
  YS02006556           JUNCTION     0.89     1.92     8.23     0  03:03        1.91
  YS02006558           JUNCTION     0.93     1.96     8.23     0  02:59        1.96
  YS02001783           JUNCTION     0.59     1.64     7.78     0  02:37        1.46
  YS02001784           JUNCTION     0.62     1.77     7.84     0  02:37        1.41
  YS02001786           JUNCTION     0.59     2.08     8.11     0  02:37        1.25
  YS02001788           JUNCTION     0.56     2.15     8.13     0  02:37        1.12
  YS02001790           JUNCTION     0.77     1.96     7.60     0  02:36        1.29
  YS02001791           JUNCTION     0.82     1.79     7.26     0  02:37        1.27
  YS02001793           JUNCTION     1.22     2.53     7.36     0  02:34        1.80
  WS02004139           JUNCTION     0.60     0.65     5.56     0  05:27        0.65
  WSC                  OUTFALL      0.30     0.38     1.05     0  03:09        0.38
  3                    OUTFALL      0.06     0.20     6.20     0  06:10        0.20
  4                    OUTFALL      0.01     0.08     7.08     0  03:02        0.08
  5                    OUTFALL      0.00     0.00     5.00     0  00:00        0.00
  JK-storage           STORAGE      4.39     5.80     6.60     0  02:37        5.80
  CC-storage           STORAGE      1.07     1.37     8.37     0  03:26        1.37
  XR-storage           STORAGE      7.41     7.72     5.72     0  02:20        7.72
  
  
  *******************
  Node Inflow Summary
  *******************
  
  -------------------------------------------------------------------------------------------------
                                  Maximum  Maximum                  Lateral       Total        Flow
                                  Lateral    Total  Time of Max      Inflow      Inflow     Balance
                                   Inflow   Inflow   Occurrence      Volume      Volume       Error
  Node                 Type           LPS      LPS  days hr:min    10^6 ltr    10^6 ltr     Percent
  -------------------------------------------------------------------------------------------------
  WS02001211           JUNCTION      7.35   293.65     0  05:34       0.207        6.76       0.544
  WS02001212           JUNCTION      0.00   294.79     0  05:33           0        6.72       0.298
  WS02001213           JUNCTION      0.00   295.87     0  05:33           0         6.7       0.331
  WS02003069           JUNCTION      0.32   870.24     0  03:07     0.00902        14.5       0.190
  WS02003072           JUNCTION      0.00   870.00     0  03:07           0        14.5       0.236
  WS02003073           JUNCTION      1.82   871.71     0  03:08      0.0514        14.5       0.263
  WS02003060           JUNCTION     16.53   870.27     0  03:06       0.466        14.5       0.180
  WS02003066           JUNCTION      0.00   657.89     0  03:06           0        7.42       0.051
  WS02003059           JUNCTION      0.00   297.96     0  05:32           0        6.68       0.566
  WS02003067           JUNCTION      0.00   657.78     0  03:06           0        7.42       0.110
  WS02004401           JUNCTION      0.00   660.73     0  03:03           0        7.63       0.248
  WS02004402           JUNCTION      0.00   660.22     0  03:03           0        7.61       0.237
  WS02004403           JUNCTION      0.00   659.09     0  03:03           0        7.59       0.218
  WS02004404           JUNCTION      0.16   658.81     0  03:04     0.00457        7.58       0.168
  WS02004406           JUNCTION      0.00   658.91     0  03:04           0        7.55       0.409
  WS02004409           JUNCTION      0.00   658.80     0  03:04           0        7.51       0.176
  WS02004410           JUNCTION      0.00   658.48     0  03:04           0         7.5       0.202
  WS02004411           JUNCTION      0.00   658.16     0  03:05           0        7.48       0.211
  WS02004412           JUNCTION      0.00   658.02     0  03:05           0        7.47       0.234
  WS02004413           JUNCTION      0.00   657.90     0  03:05           0        7.45       0.355
  WS02004405           JUNCTION      0.04   658.87     0  03:04     0.00107        7.57       0.250
  WS02006109           JUNCTION      1.23   651.10     0  03:02      0.0347        7.67       0.269
  WS02006110           JUNCTION      0.00   651.09     0  03:02           0        7.65       0.232
  WS02006111           JUNCTION      0.00   683.71     0  03:03           0        7.63       0.049
  WS02006112           JUNCTION     14.47   661.81     0  03:03      0.0629        7.69       0.349
  WS02006113           JUNCTION      0.00   652.61     0  03:03           0        7.64       0.102
  WS02006115           JUNCTION      0.00   662.20     0  03:03           0        7.66       0.220
  WS02006116           JUNCTION      0.00   661.63     0  03:03           0        7.64       0.212
  WS02006230           JUNCTION     10.28   392.76     0  05:12        0.29        5.79       0.198
  WS02006231           JUNCTION      0.00   385.37     0  06:13           0        5.51       0.181
  WS02006232           JUNCTION      0.00   385.87     0  06:13           0        5.52       0.262
  WS02006234           JUNCTION      0.00   388.03     0  06:12           0        5.53       0.113
  WS02006235           JUNCTION      0.00   390.46     0  06:12           0        5.57       0.166
  WS02006238           JUNCTION      0.00   306.08     0  05:12           0        4.56       0.142
  WS02006240           JUNCTION      0.00   309.89     0  05:11           0        4.55       0.221
  WS02006242           JUNCTION      0.00   317.30     0  06:11           0        4.55       0.283
  WS02006243           JUNCTION      0.00   329.64     0  06:11           0        4.55       0.077
  WS02006245           JUNCTION      0.00   336.64     0  06:10           0        4.56       0.174
  WS02006247           JUNCTION      0.00   343.77     0  06:10           0        4.56       0.144
  WS02006248           JUNCTION      0.00   349.82     0  06:10           0        4.57       0.081
  WS02006249           JUNCTION      0.00   392.89     0  05:10           0        4.73       0.223
  WS02006239           JUNCTION      0.00   306.63     0  05:12           0        4.55       0.208
  WS02006251           JUNCTION      0.08   400.14     0  06:10     0.00217        4.75       0.183
  WS02006252           JUNCTION      0.00   399.96     0  06:10           0        4.37       0.010
  WS02006253           JUNCTION      1.91    81.00     0  03:01     0.00814       0.375       0.998
  WS02006256           JUNCTION      0.00   600.00     0  06:00           0        3.42       0.073
  WS02004138           JUNCTION      0.00   285.00     0  05:00           0        6.58       0.071
  WS02004407           JUNCTION      0.00   659.11     0  03:04           0        7.52       0.081
  WS02006228           JUNCTION      0.00   649.90     0  03:02           0        7.65       0.176
  WS02006229           JUNCTION      0.00   648.49     0  03:02           0        7.66       0.148
  WS02006280           JUNCTION      0.00   375.54     0  03:02           0        1.89       0.004
  WS02006284           JUNCTION      0.10   375.54     0  03:02      0.0027        1.89       0.064
  WS02006287           JUNCTION      0.00   375.27     0  03:01           0        1.89       0.037
  WSF200               JUNCTION      0.00   657.95     0  03:06           0        7.41       0.045
  HS02004901           JUNCTION     17.47    17.47     0  03:01      0.0757      0.0759       2.380
  HS02004881           JUNCTION      7.55    79.19     0  03:01      0.0331       0.357       0.086
  HS02004876           JUNCTION     14.15    72.10     0  03:01      0.0636       0.324       0.171
  HS02004870           JUNCTION     14.17    58.27     0  03:01      0.0626       0.261       0.043
  HS02004862           JUNCTION     13.95    44.46     0  03:01      0.0685       0.198       0.089
  HS02004856           JUNCTION     10.64    30.79     0  03:01      0.0471       0.131       1.114
  HS02004852           JUNCTION      0.00    20.44     0  03:01           0       0.084       0.069
  HS02004848           JUNCTION     32.07    32.07     0  03:01       0.151       0.151       0.033
  HS02004842           JUNCTION      0.00    11.42     0  03:01           0      0.0801      19.389
  HS02004837           JUNCTION     30.75    41.91     0  03:01       0.288       0.355       0.230
  HS02004830           JUNCTION      0.15    41.84     0  03:01     0.00423       0.346       0.359
  HS02004824           JUNCTION     40.25    81.79     0  03:01       0.197       0.542       0.100
  HS02004817           JUNCTION      0.60    82.18     0  03:01      0.0169       0.558       3.079
  HS02004807           JUNCTION     26.15   107.24     0  03:01       0.115       0.657       0.656
  HS02004802           JUNCTION      0.00   106.49     0  03:01           0       0.653       0.618
  HS02004799           JUNCTION     21.02   227.51     0  03:01      0.0932        1.06       0.236
  HS02004792           JUNCTION     88.55   207.32     0  03:01       0.396       0.966       0.043
  HS02004788           JUNCTION     30.78   119.37     0  03:01       0.177       0.571       0.069
  HS02004785           JUNCTION      0.15    89.79     0  03:01     0.00423       0.396       0.125
  HS02004777           JUNCTION      0.03    90.24     0  03:01    0.000846       0.397       1.326
  HS02004770           JUNCTION     73.89    90.93     0  03:01       0.324       0.398       0.787
  HS02004480           JUNCTION      0.00   269.27     0  03:01           0        1.25       0.099
  HS02004479           JUNCTION      0.00    42.82     0  03:02           0       0.204       0.360
  HS02004478           JUNCTION      0.00   375.17     0  03:01           0        1.89       0.018
  YS02001745           JUNCTION    297.18   413.98     0  02:40        2.34        2.35       0.478
  YS02001748           JUNCTION      0.04   599.84     0  02:41     0.00127        2.34       0.964
  YS02001751           JUNCTION      0.01   308.55     0  03:01     0.00031         2.3       1.032
  YS02001754           JUNCTION      0.26   308.70     0  03:01     0.00733        2.29       1.088
  YS02001762           JUNCTION      0.00   335.40     0  02:55           0        1.77       1.199
  YS02001765           JUNCTION      0.00   335.43     0  02:55           0        1.77       1.377
  YS02001767           JUNCTION      0.54   335.39     0  02:55      0.0151         1.8       2.013
  YS02001770           JUNCTION    373.02   373.02     0  03:01        2.63        2.68       1.196
  YS02001774           JUNCTION      0.00   292.05     0  03:29           0       0.917       2.805
  YS02001779           JUNCTION      0.01   292.54     0  03:27    0.000141       0.886       1.761
  YS02001882           JUNCTION      0.00    30.05     0  02:45           0      0.0176      14.330
  YS02001884           JUNCTION      0.00    59.82     0  02:39           0      0.0535      12.945
  YS02001759           JUNCTION    359.84   662.06     0  02:55        2.43        4.12       0.559
  YS02001887           JUNCTION    453.35   453.35     0  03:01         2.8        2.83       0.301
  YS02001890           JUNCTION      0.00   453.39     0  03:01           0        2.79       0.329
  YS02001898           JUNCTION      0.00   453.49     0  03:01           0        2.77       0.120
  YS02001901           JUNCTION      0.00   453.41     0  03:01           0        2.77       0.244
  YS02001904           JUNCTION      0.00   453.55     0  03:01           0        2.77       0.225
  YS02001907           JUNCTION      0.00   871.95     0  02:59           0        6.12       0.392
  YS02001910           JUNCTION      0.00   444.72     0  02:54           0        3.37       0.351
  YS02001915           JUNCTION    263.65   444.66     0  02:54        1.96        3.39       0.177
  YS02001918           JUNCTION      0.00   209.89     0  02:54           0        1.44       0.134
  YS02001619           JUNCTION    257.27   257.27     0  03:01        1.95        1.95       0.631
  YS02001629           JUNCTION      0.00   207.27     0  02:50           0        1.63       1.792
  YS02001641           JUNCTION      0.00   437.99     0  02:50           0        3.84       0.547
  YS02001644           JUNCTION    282.70  1001.95     0  03:23        2.25        8.04       0.325
  YS02001652           JUNCTION      0.00   371.23     0  03:01           0        2.04       1.136
  YS02001655           JUNCTION      0.15   371.50     0  03:01     0.00434        2.06       1.250
  YS02001920           JUNCTION      2.87   209.71     0  02:54      0.0809        1.43       0.204
  YS02001923           JUNCTION      0.04   230.36     0  02:54     0.00106        1.34       0.048
  YS02001926           JUNCTION      0.05   185.15     0  02:54     0.00147        1.34       0.248
  YS02001929           JUNCTION    129.40   129.40     0  03:01        1.34        1.34       0.040
  YS02001658           JUNCTION      0.00   558.53     0  02:40           0        2.09       1.127
  YS02001661           JUNCTION      0.00   692.48     0  02:53           0         2.8      -0.095
  YS02001664           JUNCTION    327.80   361.20     0  02:53        2.09         2.8       0.246
  YS02001622           JUNCTION      0.00   257.30     0  03:01           0        1.94       1.666
  YS02001633           JUNCTION    287.40   438.86     0  02:50        2.32         3.9       0.825
  YS02001649           JUNCTION      0.00   936.63     0  02:50           0        4.96       0.754
  YS02001757           JUNCTION      0.00  1776.08     0  02:51           0        9.24       1.009
  YS02001895           JUNCTION      0.00   453.35     0  03:01           0        2.78       0.175
  YS02001625           JUNCTION      0.00   257.35     0  03:01           0         1.9       2.049
  YS02163301           JUNCTION      0.00   207.18     0  02:50           0        1.61       1.493
  YS02163601           JUNCTION      0.11   438.60     0  02:50      0.0031        3.87       0.781
  YS02164001           JUNCTION      0.00   438.50     0  02:50           0        3.85       0.518
  YS02001647           JUNCTION      0.00   665.90     0  02:50           0        3.94       0.719
  YSB1154              JUNCTION     25.19    25.19     0  03:01       0.113       0.114       1.286
  YSB6556              JUNCTION      0.00    24.91     0  03:01           0       0.115       1.100
  YSB1174              JUNCTION     19.06    19.06     0  03:01      0.0821      0.0827       1.581
  YSB1171              JUNCTION      0.00    43.19     0  03:01           0       0.203       3.219
  YS02006553           JUNCTION      0.00   666.87     0  03:17           0         5.9       0.264
  YS02006561           JUNCTION      0.00   964.17     0  03:00           0        8.42       0.008
  YS02006556           JUNCTION      0.00   666.97     0  03:17           0         5.9       0.191
  YS02006558           JUNCTION    392.87   964.36     0  03:00        2.57        8.45       0.062
  YS02001783           JUNCTION      0.00   964.11     0  03:00           0        8.42       0.086
  YS02001784           JUNCTION      1.06   965.15     0  03:00      0.0299        8.44       0.128
  YS02001786           JUNCTION      0.06   965.18     0  03:00     0.00159        8.43       0.161
  YS02001788           JUNCTION      0.07   965.28     0  03:00       0.002        8.42       0.163
  YS02001790           JUNCTION      0.15   965.47     0  03:00     0.00437        8.41       0.202
  YS02001791           JUNCTION      0.00   965.54     0  03:00           0        8.39       0.171
  YS02001793           JUNCTION      0.00   965.50     0  03:00           0        8.38       0.192
  WS02004139           JUNCTION      0.32   285.32     0  04:03     0.00905        6.59       0.571
  WSC                  OUTFALL       0.00   871.58     0  03:09           0        14.5       0.000
  3                    OUTFALL       0.00   478.55     0  06:10           0        2.38       0.000
  4                    OUTFALL       0.00    61.63     0  03:02           0       0.151       0.000
  5                    OUTFALL       0.00     0.00     0  00:00           0           0       0.000 ltr
  JK-storage           STORAGE       0.00   965.55     0  03:00           0        8.52      -1.884
  CC-storage           STORAGE       0.00  1776.08     0  02:51           0        8.14       0.644
  XR-storage           STORAGE     690.11   690.11     0  03:01        9.61        10.2      -0.001
  
  
  **********************
  Node Surcharge Summary
  **********************
  
  Surcharging occurs when water rises above the top of the highest conduit.
  ---------------------------------------------------------------------
                                               Max. Height   Min. Depth
                                   Hours       Above Crown    Below Rim
  Node                 Type      Surcharged         Meters       Meters
  ---------------------------------------------------------------------
  WS02004404           JUNCTION        0.68          0.054        2.726
  WS02004406           JUNCTION        0.37          0.027        2.423
  WS02004405           JUNCTION        0.52          0.041        2.759
  WS02006109           JUNCTION        1.81          0.280        1.540
  WS02006110           JUNCTION        1.12          0.104        1.746
  WS02006112           JUNCTION        1.25          0.191        1.489
  WS02006230           JUNCTION        0.56          0.080        1.490
  WS02006231           JUNCTION        0.82          0.103        1.427
  WS02006232           JUNCTION        1.70          0.233        1.247
  WS02006234           JUNCTION        1.04          0.121        1.119
  WS02006235           JUNCTION        1.23          0.153        1.137
  WS02006238           JUNCTION        1.43          0.168        1.262
  WS02006240           JUNCTION        0.82          0.063        1.327
  WS02006242           JUNCTION        1.07          0.093        0.727
  WS02006239           JUNCTION        1.01          0.097        1.193
  WS02006252           JUNCTION        0.45          0.185        0.915
  WS02006228           JUNCTION        1.73          0.335        1.865
  YS02001748           JUNCTION        5.06          1.190        0.000
  YS02001751           JUNCTION        5.20          1.172        0.028
  YS02001754           JUNCTION        5.40          1.063        0.087
  YS02001762           JUNCTION        5.64          1.033        0.117
  YS02001765           JUNCTION        5.61          0.977        0.123
  YS02001767           JUNCTION        5.58          0.930        0.100
  YS02001770           JUNCTION        5.55          0.892        0.028
  YS02001774           JUNCTION        5.63          0.989        0.061
  YS02001779           JUNCTION        5.40          0.680        0.000
  YS02001882           JUNCTION        0.79          0.610        0.220
  YS02001884           JUNCTION        0.83          0.649        0.221
  YS02001759           JUNCTION        5.66          1.069        0.141
  YS02001887           JUNCTION        0.92          0.738        0.212
  YS02001890           JUNCTION        0.95          0.754        0.006
  YS02001898           JUNCTION        0.75          0.521        0.219
  YS02001901           JUNCTION        0.88          0.673        0.197
  YS02001904           JUNCTION        0.86          0.635        0.215
  YS02001907           JUNCTION        1.50          0.950        0.000
  YS02001910           JUNCTION        1.00          0.779        0.321
  YS02001915           JUNCTION        0.78          0.588        0.412
  YS02001918           JUNCTION        0.53          0.272        0.538
  YS02001619           JUNCTION        5.22          0.610        0.000
  YS02001629           JUNCTION        5.22          0.470        0.000
  YS02001641           JUNCTION        5.62          0.954        0.146
  YS02001644           JUNCTION        5.62          0.920        0.000
  YS02001652           JUNCTION        5.41          1.113        0.017
  YS02001655           JUNCTION        5.26          1.200        0.000
  YS02001920           JUNCTION        0.56          0.342        0.798
  YS02001658           JUNCTION        5.09          1.296        0.004
  YS02001661           JUNCTION        0.23          1.384        0.006
  YS02001622           JUNCTION        5.25          0.620        0.000
  YS02001633           JUNCTION        5.60          0.972        0.088
  YS02001649           JUNCTION        5.64          1.050        0.000
  YS02001757           JUNCTION        5.74          1.184        0.026
  YS02001895           JUNCTION        0.76          0.556        0.194
  YS02001625           JUNCTION        5.43          0.780        0.000
  YS02163301           JUNCTION        5.58          0.917        0.113
  YS02163601           JUNCTION        5.64          1.027        0.053
  YS02164001           JUNCTION        5.61          0.955        0.145
  YS02001647           JUNCTION        5.42          0.805        0.095
  YS02006553           JUNCTION        1.57          0.964        0.226
  YS02006561           JUNCTION        0.66          0.280        0.870
  YS02006556           JUNCTION        1.20          0.878        0.472
  YS02006558           JUNCTION        1.17          0.859        0.541
  YS02001783           JUNCTION        1.27          0.840        0.760
  YS02001784           JUNCTION        1.34          0.968        0.522
  YS02001786           JUNCTION        1.28          1.280        0.150
  YS02001788           JUNCTION        1.27          1.350        0.130
  YS02001790           JUNCTION        4.09          1.157        0.000
  YS02001791           JUNCTION        4.18          0.985        0.935
  YS02001793           JUNCTION        4.34          1.526        1.074
  
  
  *********************
  Node Flooding Summary
  *********************
  
  Flooding refers to all water that overflows a node, whether it ponds or not.
  --------------------------------------------------------------------------
                                                             Total   Maximum
                                 Maximum   Time of Max       Flood    Ponded
                        Hours       Rate    Occurrence      Volume     Depth
  Node                 Flooded       LPS   days hr:min    10^6 ltr    Meters
  --------------------------------------------------------------------------
  YS02001748              0.01    186.47      0  02:42       0.000     0.000
  YS02001779              2.44    292.42      0  03:27       0.864     0.000
  YS02001907              0.38    288.49      0  02:59       0.211     0.000
  YS02001619              0.01     16.64      0  02:34       0.000     0.000
  YS02001629              0.01     35.22      0  02:40       0.001     0.000
  YS02001644              4.66   1001.89      0  03:23       6.029     0.000
  YS02001655              0.01     12.67      0  02:57       0.000     0.000
  YS02001622              0.01     32.85      0  02:40       0.000     0.000
  YS02001649              0.08     43.75      0  02:57       0.004     0.000
  YS02001625              0.86    167.95      0  03:01       0.235     0.000
  YS02001790              0.01    120.89      0  02:36       0.000     0.000
  JK-storage              3.92    665.53      0  03:00       4.971     0.000
  XR-storage              3.99    500.10      0  03:01       2.813     0.000
  
  
  **********************
  Storage Volume Summary
  **********************
  
  --------------------------------------------------------------------------------------------------
                         Average     Avg  Evap Exfil       Maximum     Max    Time of Max    Maximum
                          Volume    Pcnt  Pcnt  Pcnt        Volume    Pcnt     Occurrence    Outflow
  Storage Unit           1000 m3    Full  Loss  Loss       1000 m3    Full    days hr:min        LPS
  --------------------------------------------------------------------------------------------------
  JK-storage               0.220      76     0     0         0.291     100       0  02:37     600.00
  CC-storage               2.989      19     0     0         3.831      24       0  03:26     399.96
  XR-storage               0.889      96     0     0         0.926     100       0  02:20     285.00
  
  
  ***********************
  Outfall Loading Summary
  ***********************
  
  -----------------------------------------------------------
                         Flow       Avg       Max       Total
                         Freq      Flow      Flow      Volume
  Outfall Node           Pcnt       LPS       LPS    10^6 ltr
  -----------------------------------------------------------
  WSC                   99.99    582.03    871.58      14.451
  3                     47.82    227.01    478.55       2.378
  4                     24.20     28.63     61.63       0.151
  5                      0.00      0.00      0.00       0.000
  -----------------------------------------------------------
  System                43.00    837.66   1177.07      16.979
  
  
  ********************
  Link Flow Summary
  ********************
  
  -----------------------------------------------------------------------------
                                 Maximum  Time of Max   Maximum    Max/    Max/
                                  |Flow|   Occurrence   |Veloc|    Full    Full
  Link                 Type          LPS  days hr:min     m/sec    Flow   Depth
  -----------------------------------------------------------------------------
  WS02003066WSF200     CONDUIT    657.95     0  03:06      2.86    0.11    0.26
  WS02006287WS02006284 CONDUIT    375.44     0  03:02      1.98    0.17    0.29
  WS02006284WS02006280 CONDUIT    375.54     0  03:02      2.22    0.16    0.27
  WS02006280WS02006229 CONDUIT    375.58     0  03:02      3.58    0.08    0.19
  WS02006229WS02006228 CONDUIT    649.90     0  03:02      1.29    2.15    1.00
  WS02006256WS02006235 CONDUIT    166.25     0  00:01      2.58    1.76    1.00
  WS02006253WS02006251 CONDUIT     80.76     0  03:01      0.46    0.24    0.86
  WS02006252WS02006251 CONDUIT    400.06     0  06:10      3.18    1.47    1.00
  WS02006251WS02006249 CONDUIT    392.89     0  05:10      1.15    1.13    0.84
  WS02006249WS02006248 CONDUIT    349.82     0  06:10      1.15    1.92    0.81
  WS02006248WS02006247 CONDUIT    343.77     0  06:10      1.11    0.75    0.87
  WS02006247WS02006245 CONDUIT    336.64     0  06:10      1.06    2.67    0.92
  WS02006245WS02006243 CONDUIT    329.64     0  06:11      1.08    0.97    0.96
  WS02006243WS02006242 CONDUIT    317.30     0  06:11      0.92    0.68    1.00
  WS02006242WS02006240 CONDUIT    309.89     0  05:11      0.83    1.23    1.00
  WS02006240WS02006239 CONDUIT    306.63     0  05:12      0.87    0.96    1.00
  WS02006239WS02006238 CONDUIT    306.08     0  05:12      0.85    0.98    1.00
  WS02006238WS02006235 CONDUIT    310.97     0  06:20      1.25    0.69    1.00
  WS02006235WS02006234 CONDUIT    388.03     0  06:12      1.04    4.09    1.00
  WS02006234WS02006232 CONDUIT    385.87     0  06:13      1.13    0.78    1.00
  WS02006232WS02006231 CONDUIT    385.37     0  06:13      1.06    0.81    1.00
  WS02006231WS02006230 CONDUIT    382.48     0  05:12      1.35    5.80    1.00
  WS02006230WS02006229 CONDUIT    392.06     0  05:13      1.02    8.73    1.00
  WS02006228WS02006109 CONDUIT    649.87     0  03:02      1.29    2.84    1.00
  WS02006116WS02004401 CONDUIT    660.73     0  03:03      0.85    0.91    0.96
  WS02006115WS02006116 CONDUIT    661.63     0  03:03      0.90    0.85    0.89
  WS02006113WS02006111 CONDUIT    683.71     0  03:03      2.59    0.82    0.53
  WS02006112WS02006115 CONDUIT    662.20     0  03:03      0.87    0.39    0.93
  WS02006111WS02006112 CONDUIT    650.94     0  03:03      1.72    0.31    0.71
  WS02006110WS02006113 CONDUIT    652.61     0  03:03      1.49    0.59    0.82
  WS02006109WS02006110 CONDUIT    651.09     0  03:02      1.30    1.25    1.00
  WS02004411WS02004412 CONDUIT    658.02     0  03:05      1.03    0.93    0.76
  WS02004401WS02004402 CONDUIT    660.22     0  03:03      0.85    0.79    0.98
  WS02004413WS02003067 CONDUIT    657.78     0  03:06      1.24    0.28    0.64
  WS02004412WS02004413 CONDUIT    657.90     0  03:05      0.94    0.44    0.84
  WS02004410WS02004411 CONDUIT    658.16     0  03:05      1.03    0.90    0.76
  WS02004409WS02004410 CONDUIT    658.48     0  03:04      1.04    0.85    0.75
  WS02004407WS02004409 CONDUIT    658.80     0  03:04      1.53    0.23    0.54
  WS02004406WS02004407 CONDUIT    659.11     0  03:04      1.19    0.29    0.66
  WS02004405WS02004406 CONDUIT    658.91     0  03:04      0.84    1.30    1.00
  WS02004404WS02004405 CONDUIT    658.83     0  03:04      0.84    6.45    1.00
  WS02004403WS02004404 CONDUIT    658.65     0  03:04      0.84    0.48    1.00
  WS02004402WS02004403 CONDUIT    659.09     0  03:03      0.84    0.95    0.99
  WS02004139WS02001211 CONDUIT    286.30     0  05:34      0.69    0.36    0.52
  WS02004138WS02004139 CONDUIT    285.00     0  04:03      2.94    0.06    0.38
  WS02003067WS02003066 CONDUIT    657.89     0  03:06      1.35    0.21    0.45
  WS02001213WS02003059 CONDUIT    297.96     0  05:32      0.65    0.49    0.71
  WS02001212WS02001213 CONDUIT    295.87     0  05:33      1.17    0.46    0.39
  WS02001211WS02001212 CONDUIT    294.79     0  05:33      0.66    0.23    0.57
  WS02003072WS02003073 CONDUIT    869.89     0  03:08      1.68    1.88    0.47
  WS02003069WS02003072 CONDUIT    870.00     0  03:07      1.58    0.42    0.49
  WS02003060WS02003069 CONDUIT    869.92     0  03:07      1.83    0.34    0.44
  WS02003059WS02003060 CONDUIT    300.85     0  05:31      0.69    0.20    0.62
  HS02004901HS02004770 CONDUIT     17.71     0  03:01      0.07    0.07    0.39
  HS02004876HS02004881 CONDUIT     71.90     0  03:01      0.92    0.76    0.11
  HS02004870HS02004876 CONDUIT     58.03     0  03:01      0.63    0.04    0.13
  HS02004842HS02004848 CONDUIT     11.42     0  03:01      0.05    0.01    0.30
  HS02004837HS02004842 CONDUIT     11.94     0  03:02      0.41    0.01    0.32
  HS02004830HS02004837 CONDUIT     41.69     0  03:01      0.56    0.04    0.11
  HS02004824HS02004830 CONDUIT     41.67     0  03:01      0.58    0.05    0.10
  HS02004817HS02004824 CONDUIT     81.58     0  03:01      0.25    0.04    0.47
  HS02004770HS02004777 CONDUIT     90.21     0  03:01      0.32    0.16    0.41
  HS02004799HS02004480 CONDUIT    226.97     0  03:01      0.78    0.29    0.42
  HS02004792HS02004799 CONDUIT    206.60     0  03:01      0.88    0.13    0.33
  HS02004788HS02004792 CONDUIT    118.94     0  03:01      1.01    0.08    0.17
  HS02004785HS02004788 CONDUIT     89.52     0  03:02      0.66    0.67    0.19
  HS02004777HS02004785 CONDUIT     89.64     0  03:01      0.38    0.11    0.33
  HS02004480HS02004478 CONDUIT    269.12     0  03:01      1.20    1.13    0.32
  HS02004479HS02004480 CONDUIT     44.17     0  03:02      0.23    0.04    0.40
  HS02004862HS02004870 CONDUIT     44.23     0  03:01      0.64    0.05    0.10
  HS02004848HS02004852 CONDUIT     20.44     0  03:01      0.44    0.02    0.07
  HS02004856HS02004862 CONDUIT     30.57     0  03:01      0.47    0.03    0.09
  HS02004852HS02004856 CONDUIT     20.26     0  03:01      0.24    0.02    0.12
  HS02004802HS02004478 CONDUIT    106.59     0  03:02      0.45    0.09    0.35
  HS02004478WS02006287 CONDUIT    375.27     0  03:01      1.68    0.11    0.25
  HS02004817HS02004807 CONDUIT     82.18     0  03:01      0.19    0.05    0.62
  HS02004807HS02004802 CONDUIT    106.49     0  03:01      0.38    0.20    0.40
  YS02001759YS02001757 CONDUIT    662.54     0  02:55      0.84    0.47    1.00
  YS02001762YS02001759 CONDUIT    335.36     0  02:54      0.43    0.39    1.00
  YS02001765YS02001762 CONDUIT    335.40     0  02:55      0.43    0.31    1.00
  YS02001770YS02001767 CONDUIT    334.86     0  02:55      0.43    1.33    1.00
  YS02001774YS02001770 CONDUIT    292.05     0  03:29      0.37    0.19    1.00
  YS02001779YS02001774 CONDUIT    292.54     0  03:27      0.37    0.15    1.00
  YS02001649YS02001757 CONDUIT    936.62     0  02:50      1.19    0.57    1.00
  YS02001767YS02001765 CONDUIT    335.43     0  02:55      0.43    0.42    1.00
  YS02006561YS02001783 CONDUIT    964.11     0  03:00      2.12    0.50    1.00
  YS02001783YS02001784 CONDUIT    964.09     0  03:00      1.92    1.33    1.00
  YS02001784YS02001785 CONDUIT    965.12     0  03:00      1.92    2.25    1.00
  YS02001788YS02001790 CONDUIT    965.31     0  03:00      2.28    0.71    1.00
  YS02001790YS02001791 CONDUIT    965.54     0  03:00      2.78    1.05    1.00
  YS02001791YS02001793 CONDUIT    965.50     0  03:00      5.55    0.41    1.00
  YS02001910YS02001907 CONDUIT    444.78     0  02:54      0.57    0.25    1.00
  YS02001786YS02001788 CONDUIT    965.21     0  03:00      2.20    1.86    1.00
  YS02001915YS02001910 CONDUIT    444.72     0  02:54      0.57    0.22    1.00
  YS02001918YS02001915 CONDUIT    210.56     0  02:54      0.44    0.12    1.00
  YS02001923YS02001920 CONDUIT    206.84     0  02:54      0.68    0.09    1.00
  YS02001926YS02001923 CONDUIT    230.32     0  02:54      0.79    0.33    0.89
  YS02001929YS02001926 CONDUIT    185.10     0  02:54      0.84    0.09    0.80
  YS02001920YS02001918 CONDUIT    209.89     0  02:54      0.67    0.20    1.00
  YS02001629YS02163301 CONDUIT    207.18     0  02:50      0.26    0.26    1.00
  YS02001619YS02001622 CONDUIT    257.30     0  03:01      0.61    0.38    1.00
  YS02001622YS02001625 CONDUIT    257.35     0  03:01      0.33    0.14    1.00
  YS02001625YS02001629 CONDUIT    207.27     0  02:50      0.26    0.10    1.00
  YS02163301YS02001633 CONDUIT    207.24     0  02:50      0.26    0.19    1.00
  YS02163601YS02164001 CONDUIT    438.50     0  02:50      0.56    0.39    1.00
  YS02164001YS02001641 CONDUIT    437.99     0  02:50      0.56    0.60    1.00
  YS02001641YS02001644 CONDUIT    438.08     0  02:49      0.56    1.42    1.00
  YS02001647YS02001649 CONDUIT    665.84     0  02:50      0.85    0.35    1.00
  YS02006553YS02006556 CONDUIT    666.97     0  03:17      0.85    0.57    1.00
  YS02006556YS02006558 CONDUIT    667.39     0  03:17      0.85    0.53    1.00
  YSB6556YSB1171       CONDUIT     24.81     0  03:03      0.09    0.03    0.67
  YS02001907YS02006553 CONDUIT    666.87     0  03:17      0.74    0.78    1.00
  YS02006558YS02006561 CONDUIT    964.17     0  03:00      3.41    2.13    1.00
  YS02001633YS02163601 CONDUIT    438.49     0  02:50      0.56    0.46    1.00
  YS02001644YS02001647 CONDUIT    665.90     0  02:50      0.85    0.39    1.00
  YS02001745YS02001748 CONDUIT    599.79     0  02:41      1.48    0.23    0.94
  YS02001748YS02001751 CONDUIT    308.54     0  03:01      1.05    0.16    1.00
  YS02001751YS02001754 CONDUIT    308.44     0  03:01      0.88    0.15    1.00
  YS02001754YS02001757 CONDUIT    308.47     0  03:01      0.39    0.12    1.00
  YS02001882YS02001884 CONDUIT     30.05     0  02:45      0.09    0.03    1.00
  YS02001884YS02001887 CONDUIT     59.82     0  02:39      0.08    0.08    1.00
  YS02001890YS02001895 CONDUIT    453.35     0  03:01      0.58    0.21    1.00
  YS02001895YS02001898 CONDUIT    453.49     0  03:01      0.58    0.79    1.00
  YS02001898YS02001901 CONDUIT    453.41     0  03:01      0.58    0.29    1.00
  YS02001901YS02001904 CONDUIT    453.55     0  03:01      0.58    0.70    1.00
  YS02001904YS02001907 CONDUIT    453.47     0  03:01      0.58    0.16    1.00
  YS02001887YS02001890 CONDUIT    453.39     0  03:01      0.58    0.78    1.00
  YS02001652YS02001649 CONDUIT    371.50     0  03:01      0.50    0.18    1.00
  YS02001655YS02001652 CONDUIT    371.23     0  03:01      0.93    0.18    1.00
  YS02001658YS02001655 CONDUIT    371.34     0  03:01      1.21    0.16    1.00
  YS02001661YS02001658 CONDUIT    558.53     0  02:40      1.56    0.22    1.00
  YS02001664YS02001661 CONDUIT    692.48     0  02:53      1.58    0.22    0.71
  YSB1154YSB6556       CONDUIT     24.91     0  03:01      0.18    0.04    0.56
  YSB1174YSB1171       CONDUIT     18.78     0  03:01      0.07    0.03    0.68
  YSB1171HS02004479    CONDUIT     42.82     0  03:02      0.54    0.03    0.53
  HS02004881HS02006253 CONDUIT     79.15     0  03:01      1.60    0.02    0.21
  YS02001793JiankangQianchi CONDUIT    965.55     0  03:00     13.29    0.08    1.00
  YS02001757CaochengTiaoxuchi CONDUIT   1776.08     0  02:51      2.39    0.78    1.00
  WSF200WS02003060     CONDUIT    658.18     0  03:06      1.88    0.15    0.35
  1                    CONDUIT    871.58     0  03:09      3.21    0.30    0.38
  2                    CONDUIT     61.63     0  03:02      4.23    0.15    0.26
  3                    CONDUIT    478.55     0  06:10      9.72    0.76    0.66
  4                    CONDUIT      0.00     0  00:00      0.00    0.00    0.00
  CC-Pump-1            PUMP       200.00     0  04:00              1.00
  CC-Pump-2            PUMP       200.00     0  02:10              1.00
  JK-Pump-1            PUMP       300.00     0  00:00              1.00
  JK-Pump-2            PUMP       300.00     0  06:00              1.00
  XR-Pump-1            PUMP        95.00     0  00:00              1.00
  XR-Pump-2            PUMP        95.00     0  02:00              1.00
  XR-Pump-3            PUMP        95.00     0  00:00              1.00
  XR-Pump-4            PUMP        95.00     0  04:00              1.00
  
  
  ***************************
  Flow Classification Summary
  ***************************
  
  -------------------------------------------------------------------------------------
                      Adjusted    ---------- Fraction of Time in Flow Class ---------- 
                       /Actual         Up    Down  Sub   Sup   Up    Down  Norm  Inlet 
  Conduit               Length    Dry  Dry   Dry   Crit  Crit  Crit  Crit  Ltd   Ctrl  
  -------------------------------------------------------------------------------------
  WS02003066WSF200        1.00   0.06  0.00  0.00  0.00  0.94  0.00  0.00  0.60  0.00
  WS02006287WS02006284    1.00   0.04  0.01  0.00  0.59  0.36  0.00  0.00  0.65  0.00
  WS02006284WS02006280    1.00   0.04  0.00  0.00  0.00  0.00  0.00  0.96  0.00  0.00
  WS02006280WS02006229    1.00   0.04  0.00  0.00  0.00  0.00  0.00  0.96  0.00  0.00
  WS02006229WS02006228    1.00   0.00  0.00  0.00  0.99  0.00  0.00  0.01  0.00  0.00
  WS02006256WS02006235    1.00   0.00  0.00  0.00  1.00  0.00  0.00  0.00  0.00  0.00
  WS02006253WS02006251    1.00   0.03  0.01  0.00  0.96  0.00  0.00  0.00  0.00  0.00
  WS02006252WS02006251    1.00   0.07  0.00  0.00  0.00  0.00  0.93  0.00  0.00  0.00
  WS02006251WS02006249    1.00   0.00  0.00  0.00  1.00  0.00  0.00  0.00  0.23  0.00
  WS02006249WS02006248    1.00   0.00  0.02  0.00  0.92  0.00  0.06  0.00  0.00  0.00
  WS02006248WS02006247    1.00   0.02  0.00  0.00  0.98  0.00  0.00  0.00  0.10  0.00
  WS02006247WS02006245    1.00   0.02  0.00  0.00  0.98  0.00  0.00  0.00  0.00  0.00
  WS02006245WS02006243    1.00   0.01  0.00  0.00  0.95  0.00  0.00  0.03  0.01  0.00
  WS02006243WS02006242    1.00   0.01  0.00  0.00  0.99  0.00  0.00  0.00  0.20  0.00
  WS02006242WS02006240    1.00   0.00  0.00  0.00  1.00  0.00  0.00  0.00  0.00  0.00
  WS02006240WS02006239    1.00   0.00  0.00  0.00  0.97  0.00  0.00  0.03  0.01  0.00
  WS02006239WS02006238    1.00   0.00  0.00  0.00  1.00  0.00  0.00  0.00  0.02  0.00
  WS02006238WS02006235    1.00   0.00  0.00  0.00  1.00  0.00  0.00  0.00  0.00  0.00
  WS02006235WS02006234    1.00   0.00  0.00  0.00  0.96  0.00  0.04  0.00  0.00  0.00
  WS02006234WS02006232    1.00   0.00  0.00  0.00  1.00  0.00  0.00  0.00  0.08  0.00
  WS02006232WS02006231    1.00   0.00  0.00  0.00  0.99  0.00  0.00  0.00  0.00  0.00
  WS02006231WS02006230    1.00   0.00  0.00  0.00  0.41  0.00  0.58  0.00  0.00  0.00
  WS02006230WS02006229    1.00   0.00  0.00  0.00  0.99  0.00  0.00  0.01  0.01  0.00
  WS02006228WS02006109    1.00   0.00  0.00  0.00  1.00  0.00  0.00  0.00  0.00  0.00
  WS02006116WS02004401    1.00   0.02  0.00  0.00  0.98  0.00  0.00  0.00  0.00  0.00
  WS02006115WS02006116    1.00   0.02  0.00  0.00  0.97  0.00  0.00  0.01  0.00  0.00
  WS02006113WS02006111    1.00   0.02  0.00  0.00  0.00  0.98  0.00  0.00  0.11  0.00
  WS02006112WS02006115    1.00   0.02  0.00  0.00  0.98  0.00  0.00  0.00  0.00  0.00
  WS02006111WS02006112    1.00   0.02  0.00  0.00  0.98  0.00  0.00  0.00  0.92  0.00
  WS02006110WS02006113    1.00   0.01  0.01  0.00  0.98  0.00  0.00  0.00  0.00  0.00
  WS02006109WS02006110    1.00   0.00  0.01  0.00  0.98  0.00  0.01  0.00  0.00  0.00
  WS02004411WS02004412    1.00   0.04  0.00  0.00  0.96  0.00  0.00  0.00  0.00  0.00
  WS02004401WS02004402    1.00   0.02  0.00  0.00  0.98  0.00  0.00  0.00  0.00  0.00
  WS02004413WS02003067    1.00   0.04  0.01  0.00  0.00  0.00  0.95  0.00  0.00  0.00
  WS02004412WS02004413    1.00   0.04  0.00  0.00  0.96  0.00  0.00  0.00  0.03  0.00
  WS02004410WS02004411    1.00   0.04  0.00  0.00  0.96  0.00  0.00  0.00  0.03  0.00
  WS02004409WS02004410    1.00   0.04  0.00  0.00  0.96  0.00  0.00  0.00  0.03  0.00
  WS02004407WS02004409    1.00   0.04  0.00  0.00  0.96  0.00  0.00  0.00  0.89  0.00
  WS02004406WS02004407    1.00   0.00  0.04  0.00  0.96  0.00  0.00  0.00  0.00  0.00
  WS02004405WS02004406    1.00   0.00  0.00  0.00  1.00  0.00  0.00  0.00  0.01  0.00
  WS02004404WS02004405    1.00   0.00  0.00  0.00  1.00  0.00  0.00  0.00  0.00  0.00
  WS02004403WS02004404    1.00   0.00  0.02  0.00  0.98  0.00  0.00  0.00  0.01  0.00
  WS02004402WS02004403    1.00   0.02  0.00  0.00  0.98  0.00  0.00  0.00  0.00  0.00
  WS02004139WS02001211    1.00   0.00  0.00  0.00  1.00  0.00  0.00  0.00  0.00  0.00
  WS02004138WS02004139    1.00   0.00  0.00  0.00  0.99  0.01  0.00  0.00  1.00  0.00
  WS02003067WS02003066    1.00   0.05  0.01  0.00  0.94  0.00  0.00  0.00  0.00  0.00
  WS02001213WS02003059    1.00   0.00  0.00  0.00  0.99  0.00  0.00  0.00  0.00  0.00
  WS02001212WS02001213    1.00   0.00  0.00  0.00  0.89  0.00  0.11  0.00  0.00  0.00
  WS02001211WS02001212    1.00   0.00  0.00  0.00  1.00  0.00  0.00  0.00  0.00  0.00
  WS02003072WS02003073    1.00   0.00  0.00  0.00  0.00  0.00  0.00  1.00  0.00  0.00
  WS02003069WS02003072    1.00   0.00  0.00  0.00  0.99  0.01  0.00  0.00  0.22  0.00
  WS02003060WS02003069    1.00   0.00  0.00  0.00  0.99  0.01  0.00  0.00  0.19  0.00
  WS02003059WS02003060    1.00   0.00  0.00  0.00  1.00  0.00  0.00  0.00  0.01  0.00
  HS02004901HS02004770    1.00   0.04  0.00  0.00  0.96  0.00  0.00  0.00  0.00  0.00
  HS02004876HS02004881    1.00   0.02  0.00  0.00  0.90  0.08  0.00  0.00  0.00  0.00
  HS02004870HS02004876    1.00   0.01  0.00  0.00  0.99  0.00  0.00  0.00  0.95  0.00
  HS02004842HS02004848    1.00   0.00  0.04  0.00  0.96  0.00  0.00  0.00  0.58  0.00
  HS02004837HS02004842    1.00   0.00  0.00  0.00  0.99  0.01  0.00  0.00  0.11  0.00
  HS02004830HS02004837    1.00   0.00  0.00  0.00  1.00  0.00  0.00  0.00  0.99  0.00
  HS02004824HS02004830    1.00   0.00  0.00  0.00  1.00  0.00  0.00  0.00  0.00  0.00
  HS02004817HS02004824    1.00   0.00  0.00  0.00  1.00  0.00  0.00  0.00  1.00  0.00
  HS02004770HS02004777    1.00   0.00  0.04  0.00  0.96  0.00  0.00  0.00  0.03  0.00
  HS02004799HS02004480    1.00   0.00  0.02  0.00  0.95  0.00  0.02  0.00  0.00  0.00
  HS02004792HS02004799    1.00   0.00  0.00  0.00  0.99  0.01  0.00  0.00  0.98  0.00
  HS02004788HS02004792    1.00   0.00  0.00  0.00  0.99  0.01  0.00  0.00  0.98  0.00
  HS02004785HS02004788    1.00   0.00  0.00  0.00  1.00  0.00  0.00  0.00  0.00  0.00
  HS02004777HS02004785    1.00   0.00  0.00  0.00  1.00  0.00  0.00  0.00  0.14  0.00
  HS02004480HS02004478    1.00   0.04  0.00  0.00  0.66  0.00  0.00  0.30  0.00  0.00
  HS02004479HS02004480    1.00   0.03  0.00  0.00  0.97  0.00  0.00  0.00  0.12  0.00
  HS02004862HS02004870    1.00   0.00  0.00  0.00  1.00  0.00  0.00  0.00  0.05  0.00
  HS02004848HS02004852    1.00   0.04  0.00  0.00  0.96  0.00  0.00  0.00  0.61  0.00
  HS02004856HS02004862    1.00   0.00  0.05  0.00  0.95  0.00  0.00  0.00  0.80  0.00
  HS02004852HS02004856    1.00   0.04  0.00  0.00  0.96  0.00  0.00  0.00  0.85  0.00
  HS02004802HS02004478    1.00   0.04  0.00  0.00  0.96  0.00  0.00  0.00  0.03  0.00
  HS02004478WS02006287    1.00   0.05  0.00  0.00  0.72  0.23  0.00  0.00  0.66  0.00
  HS02004817HS02004807    1.00   0.00  0.04  0.00  0.96  0.00  0.00  0.00  0.01  0.00
  HS02004807HS02004802    1.00   0.04  0.00  0.00  0.96  0.00  0.00  0.00  0.00  0.00
  YS02001759YS02001757    1.00   0.00  0.00  0.00  1.00  0.00  0.00  0.00  0.16  0.00
  YS02001762YS02001759    1.00   0.00  0.00  0.00  1.00  0.00  0.00  0.00  0.04  0.00
  YS02001765YS02001762    1.00   0.00  0.00  0.00  1.00  0.00  0.00  0.00  0.16  0.00
  YS02001770YS02001767    1.00   0.00  0.00  0.00  1.00  0.00  0.00  0.00  0.00  0.00
  YS02001774YS02001770    1.00   0.00  0.04  0.00  0.96  0.00  0.00  0.00  0.04  0.00
  YS02001779YS02001774    1.00   0.00  0.00  0.00  1.00  0.00  0.00  0.00  0.21  0.00
  YS02001649YS02001757    1.00   0.00  0.00  0.00  1.00  0.00  0.00  0.00  0.17  0.00
  YS02001767YS02001765    1.00   0.00  0.00  0.00  1.00  0.00  0.00  0.00  0.00  0.00
  YS02006561YS02001783    1.00   0.05  0.00  0.00  0.65  0.30  0.00  0.00  0.56  0.00
  YS02001783YS02001784    1.00   0.00  0.05  0.00  0.95  0.00  0.00  0.00  0.01  0.00
  YS02001784YS02001785    1.00   0.00  0.00  0.00  1.00  0.00  0.00  0.00  0.20  0.00
  YS02001788YS02001790    1.00   0.00  0.00  0.00  0.72  0.28  0.00  0.00  0.35  0.00
  YS02001790YS02001791    1.00   0.00  0.00  0.00  0.69  0.31  0.00  0.00  0.20  0.00
  YS02001791YS02001793    1.00   0.00  0.00  0.00  0.70  0.30  0.00  0.00  0.02  0.00
  YS02001910YS02001907    1.00   0.00  0.00  0.00  0.98  0.00  0.00  0.02  0.13  0.00
  YS02001786YS02001788    1.00   0.00  0.00  0.00  0.71  0.29  0.00  0.00  0.00  0.00
  YS02001915YS02001910    1.00   0.00  0.00  0.00  0.99  0.01  0.00  0.00  0.18  0.00
  YS02001918YS02001915    1.00   0.00  0.01  0.00  0.98  0.01  0.00  0.00  0.58  0.00
  YS02001923YS02001920    1.00   0.00  0.00  0.00  1.00  0.00  0.00  0.00  0.85  0.00
  YS02001926YS02001923    1.00   0.00  0.03  0.00  0.13  0.00  0.83  0.00  0.00  0.00
  YS02001929YS02001926    1.00   0.00  0.04  0.00  0.96  0.00  0.00  0.00  0.78  0.00
  YS02001920YS02001918    1.00   0.00  0.01  0.00  0.99  0.00  0.00  0.00  0.00  0.00
  YS02001629YS02163301    1.00   0.05  0.00  0.00  0.95  0.00  0.00  0.00  0.00  0.00
  YS02001619YS02001622    1.00   0.04  0.00  0.00  0.96  0.00  0.00  0.00  0.00  0.00
  YS02001622YS02001625    1.00   0.04  0.00  0.00  0.96  0.00  0.00  0.00  0.07  0.00
  YS02001625YS02001629    1.00   0.04  0.01  0.00  0.93  0.00  0.01  0.00  0.00  0.00
  YS02163301YS02001633    1.00   0.00  0.05  0.00  0.95  0.00  0.00  0.00  0.00  0.00
  YS02163601YS02164001    1.00   0.00  0.03  0.00  0.97  0.00  0.00  0.00  0.00  0.00
  YS02164001YS02001641    1.00   0.01  0.03  0.00  0.97  0.00  0.00  0.00  0.06  0.00
  YS02001641YS02001644    1.00   0.00  0.01  0.00  0.99  0.00  0.00  0.00  0.00  0.00
  YS02001647YS02001649    1.00   0.00  0.05  0.00  0.95  0.00  0.00  0.00  0.01  0.00
  YS02006553YS02006556    1.00   0.01  0.00  0.00  0.99  0.00  0.00  0.00  0.03  0.00
  YS02006556YS02006558    1.00   0.00  0.00  0.00  1.00  0.00  0.00  0.00  0.00  0.00
  YSB6556YSB1171          1.00   0.03  0.01  0.00  0.96  0.00  0.00  0.00  0.00  0.00
  YS02001907YS02006553    1.00   0.00  0.02  0.00  0.98  0.00  0.00  0.00  0.00  0.00
  YS02006558YS02006561    1.00   0.05  0.00  0.00  0.17  0.77  0.00  0.00  0.48  0.00
  YS02001633YS02163601    1.00   0.00  0.01  0.00  0.99  0.00  0.00  0.00  0.16  0.00
  YS02001644YS02001647    1.00   0.00  0.05  0.00  0.95  0.00  0.00  0.00  0.00  0.00
  YS02001745YS02001748    1.00   0.00  0.00  0.00  0.89  0.01  0.00  0.10  0.05  0.00
  YS02001748YS02001751    1.00   0.00  0.00  0.00  0.97  0.03  0.00  0.00  0.15  0.00
  YS02001751YS02001754    1.00   0.00  0.00  0.00  0.94  0.00  0.00  0.06  0.02  0.00
  YS02001754YS02001757    1.00   0.00  0.00  0.00  0.99  0.01  0.00  0.00  0.20  0.00
  YS02001882YS02001884    1.00   0.05  0.00  0.00  0.95  0.00  0.00  0.00  0.00  0.00
  YS02001884YS02001887    1.00   0.03  0.01  0.00  0.96  0.00  0.00  0.00  0.00  0.00
  YS02001890YS02001895    1.00   0.00  0.05  0.00  0.95  0.00  0.00  0.00  0.00  0.00
  YS02001895YS02001898    1.00   0.05  0.00  0.00  0.94  0.00  0.01  0.00  0.00  0.00
  YS02001898YS02001901    1.00   0.05  0.00  0.00  0.95  0.00  0.00  0.00  0.02  0.00
  YS02001901YS02001904    1.00   0.05  0.00  0.00  0.95  0.00  0.00  0.00  0.00  0.00
  YS02001904YS02001907    1.00   0.00  0.05  0.00  0.95  0.00  0.00  0.00  0.00  0.00
  YS02001887YS02001890    1.00   0.00  0.00  0.00  0.98  0.00  0.02  0.00  0.00  0.00
  YS02001652YS02001649    1.00   0.00  0.00  0.00  1.00  0.00  0.00  0.00  0.18  0.00
  YS02001655YS02001652    1.00   0.00  0.00  0.00  0.94  0.00  0.00  0.06  0.02  0.00
  YS02001658YS02001655    1.00   0.00  0.04  0.00  0.93  0.03  0.00  0.00  0.11  0.00
  YS02001661YS02001658    1.00   0.04  0.00  0.00  0.89  0.07  0.00  0.00  0.06  0.00
  YS02001664YS02001661    1.00   0.04  0.00  0.00  0.86  0.10  0.00  0.00  0.22  0.00
  YSB1154YSB6556          1.00   0.04  0.00  0.00  0.96  0.00  0.00  0.00  0.02  0.00
  YSB1174YSB1171          1.00   0.03  0.01  0.00  0.96  0.00  0.00  0.00  0.00  0.00
  YSB1171HS02004479       1.00   0.03  0.00  0.00  0.97  0.00  0.00  0.00  0.11  0.00
  HS02004881HS02006253    1.00   0.03  0.00  0.00  0.89  0.00  0.00  0.08  0.73  0.00
  YS02001793JiankangQianchi    1.00   0.00  0.00  0.00  0.86  0.14  0.00  0.00  0.14  0.00
  YS02001757CaochengTiaoxuchi    1.00   0.00  0.07  0.00  0.92  0.01  0.00  0.00  0.00  0.00
  WSF200WS02003060        1.00   0.00  0.06  0.00  0.64  0.30  0.00  0.00  0.42  0.00
  1                       1.00   0.00  0.00  0.00  0.00  1.00  0.00  0.00  0.40  0.00
  2                       1.00   0.76  0.00  0.00  0.00  0.24  0.00  0.00  0.03  0.00
  3                       1.00   0.52  0.00  0.00  0.00  0.48  0.00  0.00  0.41  0.00
  4                       1.00   1.00  0.00  0.00  0.00  0.00  0.00  0.00  0.00  0.00
  
  
  *************************
  Conduit Surcharge Summary
  *************************
  
  ----------------------------------------------------------------------------
                                                           Hours        Hours 
                         --------- Hours Full --------   Above Full   Capacity
  Conduit                Both Ends  Upstream  Dnstream   Normal Flow   Limited
  ----------------------------------------------------------------------------
  WS02006229WS02006228        1.73      1.87      1.73      2.64         1.73
  WS02006256WS02006235        6.10      6.10      7.08      1.35         0.01
  WS02006252WS02006251        0.16      0.16      0.45      0.37         0.01
  WS02006251WS02006249        0.01      0.01      0.01      0.14         0.01
  WS02006249WS02006248        0.01      0.01      0.01      5.65         0.01
  WS02006247WS02006245        0.01      0.01      0.01      5.72         0.01
  WS02006243WS02006242        0.01      0.01      1.07      0.01         0.01
  WS02006242WS02006240        0.82      0.82      1.35      0.48         0.01
  WS02006240WS02006239        0.90      0.90      1.01      0.01         0.01
  WS02006239WS02006238        1.33      1.33      1.43      0.01         0.01
  WS02006238WS02006235        1.36      1.36      1.59      0.01         0.01
  WS02006235WS02006234        1.04      1.04      1.23      6.12         0.01
  WS02006234WS02006232        1.14      1.14      1.70      0.01         0.01
  WS02006232WS02006231        0.82      0.82      1.70      0.01         0.01
  WS02006231WS02006230        0.56      0.56      0.90      6.12         0.01
  WS02006230WS02006229        2.34      2.51      2.34      6.22         2.34
  WS02006228WS02006109        1.80      2.12      1.80      4.39         1.80
  WS02006112WS02006115        0.01      0.01      1.25      0.01         0.01
  WS02006111WS02006112        0.01      0.01      2.76      0.01         0.01
  WS02006110WS02006113        0.01      0.01      1.98      0.01         0.01
  WS02006109WS02006110        1.12      1.12      2.12      1.13         0.01
  WS02004406WS02004407        0.01      0.01      0.37      0.01         0.01
  WS02004405WS02004406        0.37      0.52      0.37      1.19         0.37
  WS02004404WS02004405        0.52      0.68      0.52      6.00         0.52
  WS02004403WS02004404        0.01      0.01      0.68      0.01         0.01
  WS02003072WS02003073        0.01      0.01      0.01      5.51         0.01
  HS02004480HS02004478        0.01      0.01      0.01      0.25         0.01
  YS02001759YS02001757        5.66      5.66      5.74      0.01         0.01
  YS02001762YS02001759        5.64      5.64      5.66      0.01         0.01
  YS02001765YS02001762        5.61      5.61      5.64      0.01         0.01
  YS02001770YS02001767        5.58      5.58      5.58      0.31         0.80
  YS02001774YS02001770        5.55      5.55      5.63      0.01         0.01
  YS02001779YS02001774        5.40      5.40      5.63      0.01         0.01
  YS02001649YS02001757        5.64      5.64      5.74      0.01         0.01
  YS02001767YS02001765        5.58      5.58      5.61      0.01         0.01
  YS02006561YS02001783        0.66      0.66      1.27      0.01         0.01
  YS02001783YS02001784        1.27      1.27      1.34      1.08         1.01
  YS02001784YS02001785        1.28      1.34      1.28      2.07         1.27
  YS02001788YS02001790        1.27      1.27      4.09      0.01         0.01
  YS02001790YS02001791        4.09      4.09      4.18      0.49         0.49
  YS02001791YS02001793        4.18      4.18      4.40      0.01         0.01
  YS02001910YS02001907        1.00      1.00      1.50      0.01         0.01
  YS02001786YS02001788        1.27      1.27      1.27      1.69         1.27
  YS02001915YS02001910        0.78      0.78      1.00      0.01         0.01
  YS02001918YS02001915        0.53      0.53      0.78      0.01         0.01
  YS02001923YS02001920        0.29      0.29      0.56      0.01         0.01
  YS02001920YS02001918        0.53      0.53      0.56      0.01         0.01
  YS02001629YS02163301        5.56      5.56      5.58      0.01         0.01
  YS02001619YS02001622        5.22      5.22      5.25      0.01         0.01
  YS02001622YS02001625        5.25      5.25      5.43      0.01         0.01
  YS02001625YS02001629        5.22      5.22      5.43      0.01         0.01
  YS02163301YS02001633        5.58      5.58      5.61      0.01         0.01
  YS02163601YS02164001        5.61      5.61      5.64      0.01         0.01
  YS02164001YS02001641        5.61      5.61      5.62      0.01         0.03
  YS02001641YS02001644        5.62      5.62      5.62      1.21         1.30
  YS02001647YS02001649        5.42      5.42      5.64      0.01         0.01
  YS02006553YS02006556        1.20      1.20      1.57      0.01         0.01
  YS02006556YS02006558        1.36      1.36      1.63      0.01         0.01
  YS02001907YS02006553        2.09      2.09      2.30      0.01         0.01
  YS02006558YS02006561        0.89      1.17      0.89      1.94         0.89
  YS02001633YS02163601        5.60      5.60      5.64      0.01         0.01
  YS02001644YS02001647        5.42      5.42      5.62      0.01         0.01
  YS02001745YS02001748        0.01      0.01      5.06      0.01         0.01
  YS02001748YS02001751        5.10      5.10      5.20      0.01         0.01
  YS02001751YS02001754        5.20      5.20      5.40      0.01         0.01
  YS02001754YS02001757        5.42      5.42      5.74      0.01         0.01
  YS02001882YS02001884        0.79      0.79      0.83      0.01         0.01
  YS02001884YS02001887        0.89      0.89      0.92      0.01         0.01
  YS02001890YS02001895        0.76      0.76      1.02      0.01         0.01
  YS02001895YS02001898        0.75      0.75      0.76      0.01         0.01
  YS02001898YS02001901        0.78      0.78      0.88      0.01         0.01
  YS02001901YS02001904        0.86      0.86      0.88      0.01         0.01
  YS02001904YS02001907        0.86      0.86      1.59      0.01         0.01
  YS02001887YS02001890        0.95      0.95      0.99      0.01         0.01
  YS02001652YS02001649        5.43      5.43      5.64      0.01         0.01
  YS02001655YS02001652        5.26      5.26      5.41      0.01         0.01
  YS02001658YS02001655        5.09      5.09      5.26      0.01         0.01
  YS02001661YS02001658        0.21      0.21      5.09      0.01         0.01
  YS02001664YS02001661        0.01      0.01      1.12      0.01         0.01
  YS02001793JiankangQianchi        4.34      4.34      5.35      0.01         0.01
  YS02001757CaochengTiaoxuchi        4.90      4.90      5.74      0.01         0.01
  
  
  ***************
  Pumping Summary
  ***************
  
  ---------------------------------------------------------------------------------------------------------
                                                  Min       Avg       Max     Total     Power    % Time Off
                        Percent   Number of      Flow      Flow      Flow    Volume     Usage    Pump Curve
  Pump                 Utilized   Start-Ups       LPS       LPS       LPS  10^6 ltr     Kw-hr    Low   High
  ---------------------------------------------------------------------------------------------------------
  CC-Pump-1               54.54           2      0.00    181.09    200.00     2.800      2.38    0.0    6.4
  CC-Pump-2               35.39           4      0.00    155.69    200.00     1.573      2.90    0.0   22.1
  JK-Pump-1               57.45           2      0.00    243.16    300.00     2.710     24.77    0.0    0.0
  JK-Pump-2               19.14           4      0.00    168.33    300.00     0.703      8.03    0.0    0.0
  XR-Pump-1              100.00           2      0.00     91.90     95.00     2.565     16.41    0.0    0.0
  XR-Pump-2               17.01           4      0.00     48.71     95.00     0.228      1.65    0.0    0.0
  XR-Pump-3              100.00           2      0.00     89.13     95.00     2.508     16.15    0.0    0.0
  XR-Pump-4               53.19           3      0.00     87.75     95.00     1.282      6.75    0.0    0.0
  

  Analysis begun on:  Thu Dec 23 17:52:11 2021
  Analysis ended on:  Thu Dec 23 17:52:15 2021
  Total elapsed time: 00:00:04