
  EPA STORM WATER MANAGEMENT MODEL - VERSION 5.1 (Build 5.3.0.dev0)
  --------------------------------------------------------------

  WARNING 04: minimum elevation drop used for Conduit WS02004404WS02004405
  WARNING 03: negative offset ignored for Link YS02001904YS02001907
  
  *********************************************************
  NOTE: The summary statistics displayed in this report are
  based on results found at every computational time step,  
  not just on results from each reporting time step.
  *********************************************************
  
  ****************
  Analysis Options
  ****************
  Flow Units ............... LPS
  Process Models:
    Rainfall/Runoff ........ YES
    RDII ................... NO
    Snowmelt ............... NO
    Groundwater ............ NO
    Flow Routing ........... YES
    Ponding Allowed ........ NO
    Water Quality .......... NO
  Infiltration Method ...... HORTON
  Flow Routing Method ...... DYNWAVE
  Surcharge Method ......... EXTRAN
  Starting Date ............ 08/28/2015 08:00:00
  Ending Date .............. 08/28/2015 15:50:00
  Antecedent Dry Days ...... 8.0
  Report Time Step ......... 00:01:00
  Wet Time Step ............ 00:01:00
  Dry Time Step ............ 00:01:00
  Routing Time Step ........ 5.00 sec
  Variable Time Step ....... YES
  Maximum Trials ........... 8
  Number of Threads ........ 4
  Head Tolerance ........... 0.001500 m
  
  
  **************************        Volume         Depth
  Runoff Quantity Continuity     hectare-m            mm
  **************************     ---------       -------
  Total Precipitation ......         7.641        16.729
  Evaporation Loss .........         0.000         0.000
  Infiltration Loss ........         1.880         4.117
  Surface Runoff ...........         4.668        10.221
  Final Storage ............         1.093         2.393
  Continuity Error (%) .....        -0.013
  
  
  **************************        Volume        Volume
  Flow Routing Continuity        hectare-m      10^6 ltr
  **************************     ---------     ---------
  Dry Weather Inflow .......         0.616         6.165
  Wet Weather Inflow .......         4.667        46.671
  Groundwater Inflow .......         0.000         0.000
  RDII Inflow ..............         0.000         0.000
  External Inflow ..........         0.102         1.024
  External Outflow .........         1.790        17.897
  Flooding Loss ............         2.996        29.960
  Evaporation Loss .........         0.000         0.000
  Exfiltration Loss ........         0.000         0.000
  Initial Stored Volume ....         0.076         0.761
  Final Stored Volume ......         0.680         6.802
  Continuity Error (%) .....        -0.072
  
  
  *************************
  Highest Continuity Errors
  *************************
  Node HS02004842 (12.71%)
  Node YS02001884 (10.74%)
  Node HS02004817 (2.32%)
  Node YSB1171 (2.18%)
  Node YS02163301 (1.66%)
  
  
  ***************************
  Time-Step Critical Elements
  ***************************
  Link WS02006252WS02006251 (60.73%)
  Link 3 (33.78%)
  Link WS02006238WS02006235 (1.07%)
  
  
  ********************************
  Highest Flow Instability Indexes
  ********************************
  Link YS02163601YS02164001 (43)
  Link YS02163301YS02001633 (43)
  Link YS02001629YS02163301 (42)
  Link WS02006113WS02006111 (41)
  Link YS02001619YS02001622 (40)
  
  
  *************************
  Routing Time Step Summary
  *************************
  Minimum Time Step           :     0.02 sec
  Average Time Step           :     0.79 sec
  Maximum Time Step           :     5.00 sec
  Percent in Steady State     :    -0.00
  Average Iterations per Step :     4.40
  Percent Not Converging      :    17.03
  
  
  ***************************
  Subcatchment Runoff Summary
  ***************************
  
  ------------------------------------------------------------------------------------------------------------------------------
                            Total      Total      Total      Total     Imperv       Perv      Total       Total     Peak  Runoff
                           Precip      Runon       Evap      Infil     Runoff     Runoff     Runoff      Runoff   Runoff   Coeff
  Subcatchment                 mm         mm         mm         mm         mm         mm         mm    10^6 ltr      LPS
  ------------------------------------------------------------------------------------------------------------------------------
  sub0                      16.73       0.00       0.00       0.97      14.29       0.20      14.50        0.01     3.66   0.867
  sub1                      16.73       0.00       0.00       1.58      13.63       0.26      13.89        0.09    24.51   0.830
  sub2                      16.73       0.00       0.00       5.80       9.63       0.39      10.02        0.09    22.91   0.599
  sub3                      16.73       0.00       0.00       5.88       9.59       0.31       9.90        0.22    50.49   0.592
  sub4                      16.73       0.00       0.00       1.65      13.47       0.19      13.66        0.28    60.01   0.817
  sub5                      16.73       0.00       0.00       0.99      14.24       0.18      14.42        0.16    43.61   0.862
  sub7                      16.73       0.00       0.00       1.26      13.97       0.24      14.21        0.05    13.82   0.849
  sub8                      16.73       0.00       0.00       1.27      13.96       0.23      14.19        0.09    25.44   0.848
  sub9                      16.73       0.00       0.00       1.27      13.96       0.23      14.19        0.07    19.02   0.848
  sub10                     16.73       0.00       0.00       1.13      14.10       0.21      14.30        0.16    42.73   0.855
  sub11                     16.73       0.00       0.00       1.12      14.11       0.21      14.33        0.17    47.25   0.857
  sub12                     16.73       0.00       0.00       1.83      13.37       0.35      13.71        0.12    35.87   0.820
  sub14                     16.73       0.00       0.00       1.27      13.95       0.23      14.19        0.14    37.43   0.848
  sub15                     16.73       0.00       0.00       4.53      10.73       0.49      11.22        0.19    51.47   0.671
  sub16                     16.73       0.00       0.00       4.88      10.29       0.64      10.93        0.11    32.57   0.653
  sub17                     16.73       0.00       0.00       4.74      10.44       0.61      11.05        0.09    26.81   0.661
  sub22                     16.73       0.00       0.00       6.60       8.75       0.59       9.34        0.59   160.16   0.558
  sub23                     16.73       0.00       0.00       5.59       9.67       0.60      10.27        0.49   134.74   0.614
  sub60                     16.73       0.00       0.00       1.94      11.65       0.06      11.71        3.55   386.89   0.700
  sub61                     16.73       0.00       0.00       2.75      11.65       0.09      11.73        3.62   476.87   0.701
  sub62                     16.73       0.00       0.00       1.26      12.72       0.07      12.79        3.93   491.27   0.765
  sub63                     16.73       0.00       0.00       4.75      10.14       0.10      10.23        3.10   437.54   0.612
  sub64                     16.73       0.00       0.00       2.45      11.19       0.06      11.26        3.42   367.58   0.673
  sub65                     16.73       0.00       0.00       2.11      11.40       0.06      11.46        3.52   372.98   0.685
  sub66                     16.73       0.00       0.00       4.79       9.55       0.06       9.61        2.95   336.52   0.575
  sub67                     16.73       0.00       0.00       1.24      13.25       0.09      13.35        4.12   605.48   0.798
  sub68                     16.73       0.00       0.00       2.25      12.20       0.10      12.30        3.78   521.64   0.735
  sub69                     16.73       0.00       0.00       2.37      12.50       0.14      12.64        2.95   482.20   0.755
  sub70                     16.73      12.90       0.00       8.98      17.16       1.09      18.25        4.18   460.88   0.616
  sub71                     16.73       0.00       0.00       1.27      12.46       0.07      12.53        2.96   345.19   0.749
  sub72                     16.73       0.00       0.00       1.14      10.39       0.03      10.43        2.12   185.81   0.623
  sub73                     16.73      17.77       0.00       9.78      19.72       1.38      21.10        4.96   482.28   0.612
  sub74                     16.73       0.00       0.00      12.48       3.71       0.07       3.78        1.51   261.10   0.226
  
  
  ******************
  Node Depth Summary
  ******************
  
  ---------------------------------------------------------------------------------
                                 Average  Maximum  Maximum  Time of Max    Reported
                                   Depth    Depth      HGL   Occurrence   Max Depth
  Node                 Type       Meters   Meters   Meters  days hr:min      Meters
  ---------------------------------------------------------------------------------
  WS02001211           JUNCTION     0.67     0.71     5.54     0  04:06        0.71
  WS02001212           JUNCTION     0.39     0.44     5.51     0  02:02        0.44
  WS02001213           JUNCTION     0.63     0.73     5.49     0  02:01        0.73
  WS02003069           JUNCTION     0.44     0.61     5.20     0  02:02        0.61
  WS02003072           JUNCTION     0.51     0.67     5.04     0  02:02        0.67
  WS02003073           JUNCTION     0.31     0.41     4.48     0  02:03        0.41
  WS02003060           JUNCTION     0.40     0.54     5.47     0  02:01        0.54
  WS02003066           JUNCTION     0.24     0.36     5.91     0  01:58        0.36
  WS02003059           JUNCTION     0.68     0.80     5.48     0  02:01        0.80
  WS02003067           JUNCTION     0.58     0.79     6.11     0  01:57        0.79
  WS02004401           JUNCTION     0.69     1.11     7.11     0  01:55        1.11
  WS02004402           JUNCTION     0.72     1.11     7.07     0  01:55        1.11
  WS02004403           JUNCTION     0.74     1.10     7.03     0  01:55        1.10
  WS02004404           JUNCTION     0.81     1.16     7.01     0  01:55        1.16
  WS02004406           JUNCTION     0.81     1.11     6.94     0  01:54        1.11
  WS02004409           JUNCTION     0.50     0.86     6.63     0  01:57        0.86
  WS02004410           JUNCTION     0.52     0.86     6.58     0  01:57        0.86
  WS02004411           JUNCTION     0.54     0.85     6.53     0  01:57        0.85
  WS02004412           JUNCTION     0.55     0.84     6.48     0  01:57        0.84
  WS02004413           JUNCTION     0.71     0.98     6.45     0  01:57        0.98
  WS02004405           JUNCTION     0.81     1.14     6.99     0  01:55        1.14
  WS02006109           JUNCTION     0.77     1.27     7.88     0  01:55        1.26
  WS02006110           JUNCTION     0.76     1.11     7.70     0  01:56        1.11
  WS02006111           JUNCTION     0.24     0.61     7.32     0  01:55        0.61
  WS02006112           JUNCTION     0.86     1.39     7.28     0  01:55        1.38
  WS02006113           JUNCTION     0.35     0.62     7.51     0  01:55        0.62
  WS02006115           JUNCTION     0.59     1.07     7.21     0  01:55        1.07
  WS02006116           JUNCTION     0.67     1.12     7.16     0  01:55        1.12
  WS02006230           JUNCTION     0.74     1.38     8.13     0  01:55        1.38
  WS02006231           JUNCTION     0.51     1.02     8.14     0  01:54        1.01
  WS02006232           JUNCTION     0.63     1.11     8.15     0  01:55        1.09
  WS02006234           JUNCTION     0.54     1.09     8.24     0  01:45        0.98
  WS02006235           JUNCTION     0.57     1.03     8.19     0  01:45        0.99
  WS02006238           JUNCTION     0.59     1.05     8.19     0  01:45        1.01
  WS02006240           JUNCTION     0.50     1.01     8.30     0  01:45        0.88
  WS02006242           JUNCTION     0.56     1.44     8.71     0  01:45        0.92
  WS02006243           JUNCTION     0.44     0.97     8.39     0  01:46        0.78
  WS02006245           JUNCTION     0.43     0.74     8.23     0  01:51        0.73
  WS02006247           JUNCTION     0.45     0.77     8.27     0  01:50        0.72
  WS02006248           JUNCTION     0.39     0.64     8.23     0  01:55        0.64
  WS02006249           JUNCTION     0.42     0.64     8.24     0  01:55        0.64
  WS02006239           JUNCTION     0.55     1.09     8.30     0  01:45        0.95
  WS02006251           JUNCTION     0.41     0.63     8.30     0  01:56        0.63
  WS02006252           JUNCTION     0.33     0.59     8.83     0  03:39        0.58
  WS02006253           JUNCTION     0.44     0.66     8.30     0  01:55        0.66
  WS02006256           JUNCTION     0.89     1.20     8.13     0  06:30        1.20
  WS02004138           JUNCTION     0.15     0.17     7.42     0  04:03        0.17
  WS02004407           JUNCTION     0.23     0.37     6.68     0  01:56        0.37
  WS02006228           JUNCTION     0.78     1.39     8.04     0  01:55        1.37
  WS02006229           JUNCTION     0.76     1.42     8.11     0  01:55        1.42
  WS02006280           JUNCTION     0.08     0.25     8.52     0  01:55        0.25
  WS02006284           JUNCTION     0.39     0.64     9.04     0  01:55        0.64
  WS02006287           JUNCTION     0.12     0.38     9.33     0  01:54        0.38
  WSF200               JUNCTION     0.22     0.39     5.62     0  01:59        0.39
  HS02004901           JUNCTION     0.14     0.36    10.18     0  01:52        0.36
  HS02004881           JUNCTION     0.01     0.05     9.08     0  01:55        0.05
  HS02004876           JUNCTION     0.05     0.16     9.19     0  01:55        0.16
  HS02004870           JUNCTION     0.02     0.09     9.38     0  01:55        0.09
  HS02004862           JUNCTION     0.03     0.11     9.49     0  01:55        0.11
  HS02004856           JUNCTION     0.08     0.15     9.58     0  01:55        0.15
  HS02004852           JUNCTION     0.02     0.07     9.59     0  01:55        0.07
  HS02004848           JUNCTION     0.02     0.07     9.67     0  01:55        0.07
  HS02004842           JUNCTION     0.34     0.40     9.67     0  01:55        0.40
  HS02004837           JUNCTION     0.03     0.09     9.67     0  01:55        0.09
  HS02004830           JUNCTION     0.05     0.10     9.57     0  01:56        0.10
  HS02004824           JUNCTION     0.03     0.12     9.53     0  01:55        0.12
  HS02004817           JUNCTION     0.46     0.69     9.53     0  01:55        0.69
  HS02004807           JUNCTION     0.14     0.36     9.53     0  01:55        0.36
  HS02004802           JUNCTION     0.18     0.39     9.52     0  01:55        0.39
  HS02004799           JUNCTION     0.15     0.45     9.66     0  01:53        0.45
  HS02004792           JUNCTION     0.05     0.20     9.73     0  01:52        0.20
  HS02004788           JUNCTION     0.04     0.15    10.05     0  01:53        0.15
  HS02004785           JUNCTION     0.06     0.23    10.14     0  01:52        0.23
  HS02004777           JUNCTION     0.17     0.37    10.17     0  01:52        0.37
  HS02004770           JUNCTION     0.14     0.35    10.18     0  01:52        0.35
  HS02004480           JUNCTION     0.10     0.37     9.61     0  01:53        0.37
  HS02004479           JUNCTION     0.14     0.41     9.61     0  01:53        0.41
  HS02004478           JUNCTION     0.08     0.27     9.50     0  01:54        0.27
  YS02001745           JUNCTION     0.78     0.93     8.44     0  02:59        0.93
  YS02001748           JUNCTION     1.18     1.39     8.47     0  01:50        1.36
  YS02001751           JUNCTION     1.37     1.84     8.72     0  01:48        1.55
  YS02001754           JUNCTION     1.62     1.86     8.47     0  01:48        1.82
  YS02001762           JUNCTION     1.82     2.04     8.44     0  02:42        2.03
  YS02001765           JUNCTION     1.77     1.99     8.44     0  02:41        1.98
  YS02001767           JUNCTION     1.74     1.95     8.44     0  02:42        1.93
  YS02001770           JUNCTION     1.73     1.93     8.42     0  02:42        1.91
  YS02001774           JUNCTION     1.80     1.98     8.40     0  02:33        1.98
  YS02001779           JUNCTION     1.54     1.68     8.37     0  01:47        1.68
  YS02001882           JUNCTION     0.71     1.68     8.40     0  01:57        1.62
  YS02001884           JUNCTION     0.80     1.77     8.39     0  01:57        1.73
  YS02001759           JUNCTION     1.86     2.08     8.44     0  02:33        2.07
  YS02001887           JUNCTION     0.88     1.82     8.36     0  01:57        1.80
  YS02001890           JUNCTION     0.91     1.81     8.32     0  01:57        1.81
  YS02001898           JUNCTION     0.68     1.57     8.31     0  01:57        1.56
  YS02001901           JUNCTION     0.79     1.68     8.29     0  01:57        1.67
  YS02001904           JUNCTION     0.77     1.64     8.27     0  01:57        1.63
  YS02001907           JUNCTION     1.10     1.96     8.25     0  01:57        1.96
  YS02001910           JUNCTION     0.89     1.95     8.46     0  01:59        1.95
  YS02001915           JUNCTION     0.69     1.91     8.62     0  01:57        1.89
  YS02001918           JUNCTION     0.43     1.81     8.88     0  01:57        1.81
  YS02001619           JUNCTION     1.33     1.61     8.54     0  01:47        1.56
  YS02001629           JUNCTION     1.68     1.85     8.40     0  01:47        1.85
  YS02001641           JUNCTION     1.78     1.96     8.40     0  07:50        1.96
  YS02001644           JUNCTION     1.78     1.92     8.35     0  01:51        1.92
  YS02001652           JUNCTION     1.63     2.16     8.76     0  02:11        2.02
  YS02001655           JUNCTION     1.40     2.18     9.03     0  02:24        1.93
  YS02001920           JUNCTION     0.53     2.03     9.04     0  01:59        2.00
  YS02001923           JUNCTION     0.35     1.86     9.12     0  01:58        1.80
  YS02001926           JUNCTION     0.37     1.90     9.35     0  01:58        1.60
  YS02001929           JUNCTION     0.23     1.56     9.26     0  01:59        1.28
  YS02001658           JUNCTION     1.12     2.22     9.36     0  02:12        1.90
  YS02001661           JUNCTION     0.89     2.36     9.76     0  02:10        1.81
  YS02001664           JUNCTION     0.40     0.57     8.49     0  01:55        0.56
  YS02001622           JUNCTION     1.35     1.62     8.52     0  01:48        1.56
  YS02001633           JUNCTION     1.77     2.00     8.45     0  07:50        2.00
  YS02001649           JUNCTION     1.83     2.05     8.44     0  01:54        2.05
  YS02001757           JUNCTION     1.95     2.18     8.44     0  02:42        2.16
  YS02001895           JUNCTION     0.67     1.57     8.32     0  01:57        1.56
  YS02001625           JUNCTION     1.63     1.78     8.38     0  01:46        1.78
  YS02163301           JUNCTION     1.71     1.94     8.46     0  07:50        1.94
  YS02163601           JUNCTION     1.82     2.06     8.46     0  07:50        2.06
  YS02164001           JUNCTION     1.76     1.97     8.43     0  07:50        1.97
  YS02001647           JUNCTION     1.61     1.80     8.41     0  01:54        1.79
  YSB1154              JUNCTION     0.28     0.56     9.62     0  01:53        0.56
  YSB6556              JUNCTION     0.17     0.44     9.61     0  01:53        0.44
  YSB1174              JUNCTION     0.23     0.50     9.61     0  01:53        0.50
  YSB1171              JUNCTION     0.43     0.71     9.61     0  01:53        0.71
  YS02006553           JUNCTION     1.10     2.17     8.45     0  01:57        1.96
  YS02006561           JUNCTION     0.43     1.95     8.61     0  01:57        1.09
  YS02006556           JUNCTION     1.06     2.37     8.68     0  01:57        1.93
  YS02006558           JUNCTION     1.10     2.48     8.75     0  01:57        1.97
  YS02001783           JUNCTION     0.76     2.25     8.39     0  01:57        1.47
  YS02001784           JUNCTION     0.78     2.23     8.30     0  01:57        1.41
  YS02001786           JUNCTION     0.74     2.23     8.26     0  01:57        1.26
  YS02001788           JUNCTION     0.71     2.28     8.26     0  01:57        1.13
  YS02001790           JUNCTION     0.94     1.96     7.60     0  01:57        1.30
  YS02001791           JUNCTION     1.00     2.45     7.92     0  01:56        1.27
  YS02001793           JUNCTION     1.51     2.08     6.91     0  01:56        1.81
  WS02004139           JUNCTION     0.61     0.65     5.56     0  04:06        0.65
  WSC                  OUTFALL      0.31     0.41     1.08     0  02:03        0.41
  3                    OUTFALL      0.06     0.19     6.19     0  06:30        0.19
  4                    OUTFALL      0.02     0.14     7.14     0  01:55        0.14
  5                    OUTFALL      0.00     0.00     5.00     0  00:00        0.00
  JK-storage           STORAGE      5.18     5.80     6.60     0  01:57        5.80
  CC-storage           STORAGE      1.17     1.41     8.41     0  02:55        1.41
  XR-storage           STORAGE      7.51     7.72     5.72     0  01:49        7.72
  
  
  *******************
  Node Inflow Summary
  *******************
  
  -------------------------------------------------------------------------------------------------
                                  Maximum  Maximum                  Lateral       Total        Flow
                                  Lateral    Total  Time of Max      Inflow      Inflow     Balance
                                   Inflow   Inflow   Occurrence      Volume      Volume       Error
  Node                 Type           LPS      LPS  days hr:min    10^6 ltr    10^6 ltr     Percent
  -------------------------------------------------------------------------------------------------
  WS02001211           JUNCTION      7.35   293.57     0  04:12       0.207        6.76       0.545
  WS02001212           JUNCTION      0.00   294.64     0  04:11           0        6.72       0.293
  WS02001213           JUNCTION      0.00   295.64     0  04:11           0         6.7       0.335
  WS02003069           JUNCTION      0.32  1018.33     0  02:01     0.00902        15.2       0.182
  WS02003072           JUNCTION      0.00  1018.31     0  02:02           0        15.1       0.226
  WS02003073           JUNCTION      1.82  1020.17     0  02:02      0.0514        15.2       0.251
  WS02003060           JUNCTION     16.53  1018.01     0  02:01       0.466        15.2       0.172
  WS02003066           JUNCTION      0.00   811.32     0  01:58           0        8.09       0.046
  WS02003059           JUNCTION      0.00   297.58     0  04:10           0        6.68       0.566
  WS02003067           JUNCTION      0.00   811.28     0  01:58           0         8.1       0.101
  WS02004401           JUNCTION      0.00   811.96     0  01:56           0         8.3       0.228
  WS02004402           JUNCTION      0.00   811.96     0  01:55           0        8.29       0.217
  WS02004403           JUNCTION      0.00   811.95     0  01:55           0        8.27       0.200
  WS02004404           JUNCTION      0.16   812.12     0  01:56     0.00457        8.26       0.153
  WS02004406           JUNCTION      0.00   812.17     0  01:56           0        8.23       0.375
  WS02004409           JUNCTION      0.00   812.13     0  01:56           0        8.19       0.161
  WS02004410           JUNCTION      0.00   811.60     0  01:56           0        8.18       0.186
  WS02004411           JUNCTION      0.00   811.36     0  01:57           0        8.16       0.194
  WS02004412           JUNCTION      0.00   811.27     0  01:57           0        8.14       0.214
  WS02004413           JUNCTION      0.00   811.26     0  01:57           0        8.13       0.325
  WS02004405           JUNCTION      0.04   812.16     0  01:56     0.00107        8.24       0.229
  WS02006109           JUNCTION      1.23   787.12     0  01:55      0.0347        8.32       0.248
  WS02006110           JUNCTION      0.00   787.05     0  01:55           0         8.3       0.212
  WS02006111           JUNCTION      0.00   786.75     0  01:55           0        8.27       0.044
  WS02006112           JUNCTION     26.81   811.99     0  01:55      0.0948        8.36       0.314
  WS02006113           JUNCTION      0.00   787.09     0  01:55           0        8.28       0.095
  WS02006115           JUNCTION      0.00   812.01     0  01:55           0        8.34       0.202
  WS02006116           JUNCTION      0.00   811.97     0  01:56           0        8.32       0.195
  WS02006230           JUNCTION     10.28   389.56     0  03:42        0.29        5.63       0.241
  WS02006231           JUNCTION      0.00   379.62     0  03:42           0        5.34       0.125
  WS02006232           JUNCTION      0.00   379.62     0  03:42           0        5.36       0.263
  WS02006234           JUNCTION      0.00   380.30     0  03:41           0        5.36       0.105
  WS02006235           JUNCTION      0.00   380.22     0  03:41           0        5.44       0.175
  WS02006238           JUNCTION      0.00   301.12     0  03:41           0        4.58       0.137
  WS02006240           JUNCTION      0.00   303.88     0  03:40           0        4.57       0.218
  WS02006242           JUNCTION      0.00   304.07     0  03:40           0        4.57       0.279
  WS02006243           JUNCTION      0.00   309.74     0  03:39           0        4.57       0.130
  WS02006245           JUNCTION      0.00   314.40     0  03:39           0        4.58       0.178
  WS02006247           JUNCTION      0.00   319.39     0  03:39           0        4.58       0.145
  WS02006248           JUNCTION      0.00   324.22     0  03:39           0        4.59       0.090
  WS02006249           JUNCTION      0.00   399.58     0  03:40           0        4.98       0.200
  WS02006239           JUNCTION      0.00   301.57     0  03:41           0        4.57       0.194
  WS02006251           JUNCTION      0.08   402.33     0  03:40     0.00217        4.99       0.174
  WS02006252           JUNCTION      0.00   399.96     0  03:40           0        4.45       0.010
  WS02006253           JUNCTION      3.66   142.87     0  01:54      0.0117       0.544       0.638
  WS02006256           JUNCTION      0.00   599.73     0  06:30           0        3.28       0.085
  WS02004138           JUNCTION      0.00   285.00     0  04:00           0        6.58       0.071
  WS02004407           JUNCTION      0.00   812.18     0  01:56           0        8.19       0.074
  WS02006228           JUNCTION      0.00   785.94     0  01:55           0         8.3       0.161
  WS02006229           JUNCTION      0.00   786.08     0  01:54           0        8.31       0.150
  WS02006280           JUNCTION      0.00   656.04     0  01:55           0         2.7       0.002
  WS02006284           JUNCTION      0.10   655.96     0  01:55      0.0027         2.7       0.039
  WS02006287           JUNCTION      0.00   655.81     0  01:54           0         2.7       0.027
  WSF200               JUNCTION      0.00   811.29     0  01:58           0        8.09       0.041
  HS02004901           JUNCTION     32.57    32.57     0  01:50       0.114       0.115       1.560
  HS02004881           JUNCTION     13.82   139.59     0  01:54      0.0479       0.529       0.086
  HS02004876           JUNCTION     24.51   126.37     0  01:54      0.0923       0.482       0.114
  HS02004870           JUNCTION     25.44   102.13     0  01:54      0.0907        0.39       0.028
  HS02004862           JUNCTION     23.11    77.53     0  01:55       0.099       0.299       0.058
  HS02004856           JUNCTION     19.02    54.51     0  01:55      0.0682       0.202       0.723
  HS02004852           JUNCTION      0.00    36.10     0  01:55           0       0.134       0.042
  HS02004848           JUNCTION     50.49    50.49     0  01:57       0.223       0.223       0.021
  HS02004842           JUNCTION      0.00    15.55     0  02:06           0       0.102      14.562
  HS02004837           JUNCTION     49.08    62.50     0  01:55       0.337       0.426       0.190
  HS02004830           JUNCTION      0.15    62.61     0  01:55     0.00423       0.416       0.298
  HS02004824           JUNCTION     60.06   122.20     0  01:58       0.286       0.702       0.077
  HS02004817           JUNCTION      0.60   124.03     0  01:59      0.0169       0.718       2.378
  HS02004807           JUNCTION     47.25   168.28     0  01:57       0.166       0.868       0.499
  HS02004802           JUNCTION      0.00   169.24     0  01:58           0       0.865       0.462
  HS02004799           JUNCTION     37.43   414.53     0  01:52       0.135        1.57       0.166
  HS02004792           JUNCTION    160.44   377.30     0  01:52       0.598        1.44       0.028
  HS02004788           JUNCTION     53.14   218.54     0  01:52        0.24       0.839       0.047
  HS02004785           JUNCTION      0.15   165.59     0  01:52     0.00423       0.601       0.083
  HS02004777           JUNCTION      0.03   165.80     0  01:51    0.000846       0.601       0.872
  HS02004770           JUNCTION    134.74   166.64     0  01:51        0.49       0.602       0.516
  HS02004480           JUNCTION      0.00   492.22     0  01:53           0        1.85       0.064
  HS02004479           JUNCTION      0.00    78.00     0  01:53           0       0.292       0.252
  HS02004478           JUNCTION      0.00   655.76     0  01:54           0         2.7       0.013
  YS02001745           JUNCTION    386.89   386.89     0  02:16        3.55        3.55       0.324
  YS02001748           JUNCTION      0.04   395.78     0  02:16     0.00127        3.54       0.652
  YS02001751           JUNCTION      0.01   395.69     0  02:16     0.00031        3.52       0.681
  YS02001754           JUNCTION      0.26   396.05     0  02:16     0.00733         3.5       0.703
  YS02001762           JUNCTION      0.00   437.50     0  02:04           0        2.22       0.953
  YS02001765           JUNCTION      0.00   437.72     0  02:04           0        2.22       1.100
  YS02001767           JUNCTION      0.54   437.63     0  02:04      0.0151        2.24       1.611
  YS02001770           JUNCTION    491.42   619.90     0  03:00        3.94        4.49       0.702
  YS02001774           JUNCTION      0.00   619.91     0  03:00           0        2.79       0.897
  YS02001779           JUNCTION      0.01   619.93     0  03:00    0.000141        2.77       0.556
  YS02001882           JUNCTION      0.00    20.66     0  01:52           0      0.0241      10.414
  YS02001884           JUNCTION      0.00    48.15     0  01:53           0      0.0592      12.031
  YS02001759           JUNCTION    476.91   872.81     0  02:04        3.62        5.25       0.436
  YS02001887           JUNCTION    605.93   606.08     0  02:16        4.13        4.16       0.212
  YS02001890           JUNCTION      0.00   606.25     0  02:15           0        4.11       0.231
  YS02001898           JUNCTION      0.00   521.39     0  01:58           0           4       0.082
  YS02001901           JUNCTION      0.00   521.17     0  01:58           0           4       0.180
  YS02001904           JUNCTION      0.00   521.58     0  01:58           0        3.99       0.161
  YS02001907           JUNCTION      0.00  1188.81     0  01:59           0        9.13       0.266
  YS02001910           JUNCTION      0.00   671.82     0  01:59           0        5.15       0.241
  YS02001915           JUNCTION    345.21   671.64     0  01:59        2.96         5.2       0.119
  YS02001918           JUNCTION      0.00   393.86     0  01:59           0        2.27       0.084
  YS02001619           JUNCTION    336.52   336.52     0  02:16        2.95        2.95       0.414
  YS02001629           JUNCTION      0.00   226.75     0  01:47           0        1.44       2.016
  YS02001641           JUNCTION      0.00   417.60     0  01:51           0        4.85       0.431
  YS02001644           JUNCTION    367.62  1418.60     0  03:00        3.42        12.2       0.211
  YS02001652           JUNCTION      0.00   476.97     0  02:16           0        3.05       0.750
  YS02001655           JUNCTION      0.15   476.65     0  02:16     0.00434        3.07       0.832
  YS02001920           JUNCTION      2.87   393.70     0  01:59      0.0809        2.25       0.140
  YS02001923           JUNCTION      0.04   315.34     0  02:00     0.00106        2.15       0.043
  YS02001926           JUNCTION      0.05   273.57     0  01:58     0.00147        2.14       0.145
  YS02001929           JUNCTION    185.81   199.03     0  01:58        2.12        2.13       0.026
  YS02001658           JUNCTION      0.00   500.33     0  02:16           0        3.09       0.771
  YS02001661           JUNCTION      0.00   772.51     0  02:05           0        3.81      -0.085
  YS02001664           JUNCTION    437.54   437.54     0  02:16         3.1        3.82       0.187
  YS02001622           JUNCTION      0.00   336.78     0  02:16           0        2.94       1.094
  YS02001633           JUNCTION    373.18   417.41     0  01:51        3.53        4.92       0.651
  YS02001649           JUNCTION      0.00   978.79     0  02:00           0        6.25       0.592
  YS02001757           JUNCTION      0.00  2139.14     0  02:03           0        10.3       0.895
  YS02001895           JUNCTION      0.00   521.03     0  01:58           0           4       0.131
  YS02001625           JUNCTION      0.00   336.63     0  02:16           0        2.91       1.365
  YS02163301           JUNCTION      0.00   224.51     0  01:48           0        1.44       1.684
  YS02163601           JUNCTION      0.11   417.45     0  01:51      0.0031        4.87       0.617
  YS02164001           JUNCTION      0.00   417.38     0  01:51           0        4.85       0.409
  YS02001647           JUNCTION      0.00   691.11     0  02:57           0        5.26       0.540
  YSB1154              JUNCTION     43.61    43.61     0  01:53       0.163       0.164       0.888
  YSB6556              JUNCTION      0.00    43.64     0  01:53           0       0.165       0.764
  YSB1174              JUNCTION     35.87    35.87     0  01:50        0.12        0.12       1.078
  YSB1171              JUNCTION      0.00    78.03     0  01:52           0       0.291       2.227
  YS02006553           JUNCTION      0.00   682.68     0  03:22           0        7.14       0.218
  YS02006561           JUNCTION      0.00  1095.28     0  01:57           0        10.9       0.007
  YS02006556           JUNCTION      0.00   682.71     0  03:22           0        7.15       0.160
  YS02006558           JUNCTION    522.52  1095.61     0  01:57        3.81        10.9       0.048
  YS02001783           JUNCTION      0.00  1081.54     0  01:57           0        10.9       0.069
  YS02001784           JUNCTION      1.06  1082.51     0  01:57      0.0299        10.9       0.101
  YS02001786           JUNCTION      0.06  1082.35     0  01:57     0.00159        10.9       0.124
  YS02001788           JUNCTION      0.07  1075.61     0  01:57       0.002        10.9       0.124
  YS02001790           JUNCTION      0.15  1048.44     0  01:56     0.00437        10.9       0.158
  YS02001791           JUNCTION      0.00  1092.75     0  01:56           0        10.9       0.127
  YS02001793           JUNCTION      0.00  1025.11     0  01:55           0        10.9       0.146
  WS02004139           JUNCTION      0.32   285.32     0  04:03     0.00905        6.59       0.571
  WSC                  OUTFALL       0.00  1020.23     0  02:03           0        15.1       0.000
  3                    OUTFALL       0.00   466.53     0  06:30           0        2.39       0.000
  4                    OUTFALL       0.00   179.65     0  01:55           0       0.384       0.000
  5                    OUTFALL       0.00     0.00     0  00:00           0           0       0.000 ltr
  JK-storage           STORAGE       0.00   997.23     0  01:57           0          11      -0.072
  CC-storage           STORAGE       0.00  2139.27     0  02:03           0        8.24       0.788
  XR-storage           STORAGE     844.69   844.69     0  03:01        12.1        12.7      -0.002
  
  
  **********************
  Node Surcharge Summary
  **********************
  
  Surcharging occurs when water rises above the top of the highest conduit.
  ---------------------------------------------------------------------
                                               Max. Height   Min. Depth
                                   Hours       Above Crown    Below Rim
  Node                 Type      Surcharged         Meters       Meters
  ---------------------------------------------------------------------
  WS02004401           JUNCTION        0.56          0.113        1.547
  WS02004402           JUNCTION        0.60          0.115        1.625
  WS02004403           JUNCTION        0.61          0.104        1.926
  WS02004404           JUNCTION        0.84          0.157        2.623
  WS02004406           JUNCTION        0.72          0.106        2.344
  WS02004405           JUNCTION        0.78          0.137        2.663
  WS02006109           JUNCTION        2.22          0.446        1.374
  WS02006110           JUNCTION        1.44          0.204        1.646
  WS02006112           JUNCTION        1.54          0.393        1.287
  WS02006115           JUNCTION        0.32          0.057        2.193
  WS02006116           JUNCTION        0.38          0.063        2.227
  WS02006230           JUNCTION        0.79          0.305        1.265
  WS02006231           JUNCTION        0.92          0.310        1.220
  WS02006232           JUNCTION        1.94          0.410        1.070
  WS02006234           JUNCTION        1.42          0.365        0.875
  WS02006235           JUNCTION        1.64          0.316        0.974
  WS02006238           JUNCTION        1.74          0.329        1.101
  WS02006240           JUNCTION        0.92          0.295        1.095
  WS02006242           JUNCTION        1.52          0.707        0.113
  WS02006243           JUNCTION        0.56          0.260        0.510
  WS02006245           JUNCTION        0.22          0.031        0.819
  WS02006247           JUNCTION        0.18          0.062        0.698
  WS02006239           JUNCTION        1.41          0.350        0.940
  WS02006252           JUNCTION        0.25          0.189        0.911
  WS02006228           JUNCTION        2.17          0.556        1.644
  YS02001748           JUNCTION        5.99          0.310        0.880
  YS02001751           JUNCTION        6.02          0.838        0.362
  YS02001754           JUNCTION        6.04          0.812        0.338
  YS02001762           JUNCTION        6.09          1.042        0.108
  YS02001765           JUNCTION        6.08          0.989        0.111
  YS02001767           JUNCTION        6.07          0.954        0.076
  YS02001770           JUNCTION        6.07          0.897        0.023
  YS02001774           JUNCTION        6.08          0.982        0.068
  YS02001779           JUNCTION        6.04          0.680        0.000
  YS02001882           JUNCTION        1.76          0.684        0.146
  YS02001884           JUNCTION        1.79          0.711        0.159
  YS02001759           JUNCTION        6.09          1.079        0.131
  YS02001887           JUNCTION        1.87          0.775        0.175
  YS02001890           JUNCTION        1.90          0.760        0.000
  YS02001898           JUNCTION        1.71          0.545        0.195
  YS02001901           JUNCTION        1.84          0.684        0.186
  YS02001904           JUNCTION        1.81          0.644        0.206
  YS02001907           JUNCTION        2.26          0.950        0.000
  YS02001910           JUNCTION        1.94          0.954        0.146
  YS02001915           JUNCTION        1.75          0.906        0.094
  YS02001918           JUNCTION        1.51          0.810        0.000
  YS02001619           JUNCTION        6.02          0.610        0.000
  YS02001629           JUNCTION        6.02          0.470        0.000
  YS02001641           JUNCTION        6.08          0.964        0.136
  YS02001644           JUNCTION        6.08          0.920        0.000
  YS02001652           JUNCTION        6.05          1.130        0.000
  YS02001655           JUNCTION        6.02          1.176        0.024
  YS02001920           JUNCTION        1.55          1.028        0.112
  YS02001923           JUNCTION        0.01          0.646        0.174
  YS02001926           JUNCTION        0.01          0.900        0.000
  YS02001929           JUNCTION        0.01          0.564        0.216
  YS02001658           JUNCTION        5.99          1.220        0.080
  YS02001661           JUNCTION        0.26          1.287        0.103
  YS02001622           JUNCTION        6.02          0.620        0.000
  YS02001633           JUNCTION        6.08          0.981        0.079
  YS02001649           JUNCTION        6.08          1.050        0.000
  YS02001757           JUNCTION        6.12          1.178        0.032
  YS02001895           JUNCTION        1.73          0.572        0.178
  YS02001625           JUNCTION        6.05          0.780        0.000
  YS02163301           JUNCTION        6.07          0.941        0.089
  YS02163601           JUNCTION        6.09          1.060        0.020
  YS02164001           JUNCTION        6.08          0.967        0.133
  YS02001647           JUNCTION        6.05          0.801        0.099
  YS02006553           JUNCTION        2.31          1.166        0.024
  YS02006561           JUNCTION        1.61          1.150        0.000
  YS02006556           JUNCTION        2.11          1.330        0.020
  YS02006558           JUNCTION        2.09          1.380        0.020
  YS02001783           JUNCTION        2.13          1.447        0.153
  YS02001784           JUNCTION        2.16          1.429        0.061
  YS02001786           JUNCTION        2.06          1.430        0.000
  YS02001788           JUNCTION        2.04          1.480        0.000
  YS02001790           JUNCTION        5.35          1.157        0.000
  YS02001791           JUNCTION        5.43          1.652        0.268
  YS02001793           JUNCTION        5.57          1.080        1.520
  
  
  *********************
  Node Flooding Summary
  *********************
  
  Flooding refers to all water that overflows a node, whether it ponds or not.
  --------------------------------------------------------------------------
                                                             Total   Maximum
                                 Maximum   Time of Max       Flood    Ponded
                        Hours       Rate    Occurrence      Volume     Depth
  Node                 Flooded       LPS   days hr:min    10^6 ltr    Meters
  --------------------------------------------------------------------------
  YS02001779              3.45    619.92      0  03:00       2.750     0.000
  YS02001890              0.56     89.38      0  02:15       0.100     0.000
  YS02001907              1.38    669.76      0  01:59       1.976     0.000
  YS02001918              0.01     79.06      0  01:57       0.000     0.000
  YS02001619              0.01     72.54      0  01:48       0.000     0.000
  YS02001629              0.01    179.31      0  01:47       0.001     0.000
  YS02001644              5.80   1418.59      0  03:00      10.932     0.000
  YS02001652              0.01      7.02      0  02:24       0.000     0.000
  YS02001926              0.01    111.08      0  01:58       0.000     0.000
  YS02001622              0.01     50.59      0  01:49       0.000     0.000
  YS02001649              0.08     36.29      0  03:50       0.003     0.000
  YS02001625              2.01    326.17      0  02:16       1.447     0.000
  YS02006561              0.01     61.87      0  01:57       0.000     0.000
  YS02001786              0.01     18.25      0  01:57       0.000     0.000
  YS02001788              0.01    133.08      0  01:57       0.000     0.000
  YS02001790              0.01    150.05      0  01:57       0.000     0.000
  JK-storage              5.24    696.94      0  01:57       7.467     0.000
  XR-storage              4.83    654.68      0  03:01       5.282     0.000
  
  
  **********************
  Storage Volume Summary
  **********************
  
  --------------------------------------------------------------------------------------------------
                         Average     Avg  Evap Exfil       Maximum     Max    Time of Max    Maximum
                          Volume    Pcnt  Pcnt  Pcnt        Volume    Pcnt     Occurrence    Outflow
  Storage Unit           1000 m3    Full  Loss  Loss       1000 m3    Full    days hr:min        LPS
  --------------------------------------------------------------------------------------------------
  JK-storage               0.260      89     0     0         0.291     100       0  01:57     599.73
  CC-storage               3.262      21     0     0         3.932      25       0  02:55     399.96
  XR-storage               0.902      97     0     0         0.926     100       0  01:49     285.00
  
  
  ***********************
  Outfall Loading Summary
  ***********************
  
  -----------------------------------------------------------
                         Flow       Avg       Max       Total
                         Freq      Flow      Flow      Volume
  Outfall Node           Pcnt       LPS       LPS    10^6 ltr
  -----------------------------------------------------------
  WSC                   99.99    605.56   1020.23      15.128
  3                     47.17    222.93    466.53       2.386
  4                     27.17     64.78    179.65       0.384
  5                      0.00      0.00      0.00       0.000
  -----------------------------------------------------------
  System                43.58    893.27   1517.88      17.897
  
  
  ********************
  Link Flow Summary
  ********************
  
  -----------------------------------------------------------------------------
                                 Maximum  Time of Max   Maximum    Max/    Max/
                                  |Flow|   Occurrence   |Veloc|    Full    Full
  Link                 Type          LPS  days hr:min     m/sec    Flow   Depth
  -----------------------------------------------------------------------------
  WS02003066WSF200     CONDUIT    811.29     0  01:58      3.01    0.14    0.29
  WS02006287WS02006284 CONDUIT    655.86     0  01:55      2.36    0.30    0.38
  WS02006284WS02006280 CONDUIT    656.04     0  01:55      2.59    0.27    0.36
  WS02006280WS02006229 CONDUIT    656.05     0  01:55      4.21    0.14    0.25
  WS02006229WS02006228 CONDUIT    785.94     0  01:55      1.56    2.60    1.00
  WS02006256WS02006235 CONDUIT    166.25     0  00:01      2.58    1.76    1.00
  WS02006253WS02006251 CONDUIT    142.93     0  01:55      0.59    0.43    0.91
  WS02006252WS02006251 CONDUIT    400.09     0  03:40      3.18    1.47    1.00
  WS02006251WS02006249 CONDUIT    399.58     0  03:40      1.14    1.15    0.90
  WS02006249WS02006248 CONDUIT    324.22     0  03:39      1.12    1.78    0.90
  WS02006248WS02006247 CONDUIT    319.39     0  03:39      1.09    0.70    0.96
  WS02006247WS02006245 CONDUIT    314.40     0  03:39      1.05    2.49    1.00
  WS02006245WS02006243 CONDUIT    309.74     0  03:39      1.10    0.92    1.00
  WS02006243WS02006242 CONDUIT    304.07     0  03:40      0.87    0.65    1.00
  WS02006242WS02006240 CONDUIT    303.88     0  03:40      0.79    1.21    1.00
  WS02006240WS02006239 CONDUIT    301.57     0  03:41      0.87    0.95    1.00
  WS02006239WS02006238 CONDUIT    301.12     0  03:41      0.78    0.96    1.00
  WS02006238WS02006235 CONDUIT    301.07     0  03:41      1.25    0.67    1.00
  WS02006235WS02006234 CONDUIT    380.30     0  03:41      0.99    4.01    1.00
  WS02006234WS02006232 CONDUIT    379.62     0  03:42      1.13    0.77    1.00
  WS02006232WS02006231 CONDUIT    379.62     0  03:42      1.02    0.80    1.00
  WS02006231WS02006230 CONDUIT    379.28     0  03:42      1.28    5.75    1.00
  WS02006230WS02006229 CONDUIT    389.75     0  03:42      1.01    8.67    1.00
  WS02006228WS02006109 CONDUIT    785.89     0  01:55      1.56    3.43    1.00
  WS02006116WS02004401 CONDUIT    811.96     0  01:56      1.03    1.12    1.00
  WS02006115WS02006116 CONDUIT    811.97     0  01:56      1.03    1.04    1.00
  WS02006113WS02006111 CONDUIT    786.75     0  01:55      2.66    0.94    0.77
  WS02006112WS02006115 CONDUIT    812.01     0  01:55      1.03    0.48    1.00
  WS02006111WS02006112 CONDUIT    787.21     0  01:56      1.79    0.37    0.88
  WS02006110WS02006113 CONDUIT    787.09     0  01:55      1.69    0.72    0.88
  WS02006109WS02006110 CONDUIT    787.05     0  01:55      1.57    1.51    1.00
  WS02004411WS02004412 CONDUIT    811.27     0  01:57      1.15    1.15    0.84
  WS02004401WS02004402 CONDUIT    811.96     0  01:55      1.03    0.97    1.00
  WS02004413WS02003067 CONDUIT    811.28     0  01:58      1.40    0.35    0.69
  WS02004412WS02004413 CONDUIT    811.26     0  01:57      1.08    0.54    0.91
  WS02004410WS02004411 CONDUIT    811.36     0  01:57      1.14    1.11    0.85
  WS02004409WS02004410 CONDUIT    811.60     0  01:56      1.13    1.05    0.86
  WS02004407WS02004409 CONDUIT    812.13     0  01:56      1.67    0.29    0.61
  WS02004406WS02004407 CONDUIT    812.18     0  01:56      1.42    0.36    0.68
  WS02004405WS02004406 CONDUIT    812.17     0  01:56      1.03    1.60    1.00
  WS02004404WS02004405 CONDUIT    812.13     0  01:56      1.03    7.96    1.00
  WS02004403WS02004404 CONDUIT    811.96     0  01:56      1.03    0.59    1.00
  WS02004402WS02004403 CONDUIT    811.95     0  01:55      1.03    1.17    1.00
  WS02004139WS02001211 CONDUIT    286.22     0  04:12      0.69    0.36    0.52
  WS02004138WS02004139 CONDUIT    285.00     0  04:03      2.94    0.06    0.38
  WS02003067WS02003066 CONDUIT    811.32     0  01:58      1.52    0.26    0.48
  WS02001213WS02003059 CONDUIT    297.58     0  04:10      0.65    0.49    0.75
  WS02001212WS02001213 CONDUIT    295.64     0  04:11      1.17    0.46    0.43
  WS02001211WS02001212 CONDUIT    294.64     0  04:11      0.67    0.23    0.57
  WS02003072WS02003073 CONDUIT   1018.35     0  02:02      1.78    2.20    0.51
  WS02003069WS02003072 CONDUIT   1018.31     0  02:02      1.67    0.49    0.53
  WS02003060WS02003069 CONDUIT   1018.01     0  02:01      1.90    0.40    0.48
  WS02003059WS02003060 CONDUIT    300.20     0  04:09      0.78    0.20    0.67
  HS02004901HS02004770 CONDUIT     31.96     0  01:52      0.09    0.12    0.51
  HS02004876HS02004881 CONDUIT    126.38     0  01:55      1.20    1.34    0.15
  HS02004870HS02004876 CONDUIT    102.10     0  01:55      0.82    0.07    0.18
  HS02004842HS02004848 CONDUIT     15.55     0  02:06      0.07    0.01    0.33
  HS02004837HS02004842 CONDUIT     15.96     0  02:07      0.41    0.01    0.35
  HS02004830HS02004837 CONDUIT     62.46     0  01:55      0.66    0.06    0.14
  HS02004824HS02004830 CONDUIT     62.57     0  01:56      0.62    0.08    0.16
  HS02004817HS02004824 CONDUIT    123.43     0  01:59      0.31    0.06    0.58
  HS02004770HS02004777 CONDUIT    165.77     0  01:51      0.46    0.30    0.52
  HS02004799HS02004480 CONDUIT    414.30     0  01:53      1.02    0.52    0.58
  HS02004792HS02004799 CONDUIT    377.20     0  01:52      1.15    0.23    0.47
  HS02004788HS02004792 CONDUIT    218.44     0  01:53      1.24    0.14    0.25
  HS02004785HS02004788 CONDUIT    165.54     0  01:53      0.86    1.25    0.27
  HS02004777HS02004785 CONDUIT    165.44     0  01:52      0.54    0.20    0.44
  HS02004480HS02004478 CONDUIT    492.13     0  01:53      1.52    2.07    0.46
  HS02004479HS02004480 CONDUIT     78.30     0  01:54      0.27    0.08    0.55
  HS02004862HS02004870 CONDUIT     77.52     0  01:55      0.79    0.08    0.14
  HS02004848HS02004852 CONDUIT     36.10     0  01:55      0.52    0.04    0.10
  HS02004856HS02004862 CONDUIT     54.46     0  01:55      0.59    0.05    0.13
  HS02004852HS02004856 CONDUIT     36.15     0  01:56      0.33    0.04    0.16
  HS02004802HS02004478 CONDUIT    170.22     0  01:58      0.53    0.15    0.47
  HS02004478WS02006287 CONDUIT    655.81     0  01:54      2.08    0.18    0.35
  HS02004817HS02004807 CONDUIT    125.36     0  01:59      0.24    0.07    0.75
  HS02004807HS02004802 CONDUIT    169.24     0  01:58      0.47    0.32    0.53
  YS02001759YS02001757 CONDUIT    872.78     0  02:04      1.11    0.62    1.00
  YS02001762YS02001759 CONDUIT    437.72     0  02:04      0.56    0.50    1.00
  YS02001765YS02001762 CONDUIT    437.50     0  02:04      0.56    0.41    1.00
  YS02001770YS02001767 CONDUIT    437.10     0  02:04      0.56    1.73    1.00
  YS02001774YS02001770 CONDUIT    619.91     0  03:00      0.79    0.40    1.00
  YS02001779YS02001774 CONDUIT    619.92     0  03:00      0.79    0.31    1.00
  YS02001649YS02001757 CONDUIT    978.83     0  02:00      1.25    0.59    1.00
  YS02001767YS02001765 CONDUIT    437.72     0  02:04      0.56    0.55    1.00
  YS02006561YS02001783 CONDUIT   1081.54     0  01:57      2.27    0.56    1.00
  YS02001783YS02001784 CONDUIT   1081.45     0  01:57      2.15    1.49    1.00
  YS02001784YS02001785 CONDUIT   1082.30     0  01:57      2.16    2.52    1.00
  YS02001788YS02001790 CONDUIT   1048.28     0  01:56      2.57    0.77    1.00
  YS02001790YS02001791 CONDUIT   1092.75     0  01:56      3.18    1.19    1.00
  YS02001791YS02001793 CONDUIT   1025.11     0  01:55      6.23    0.44    1.00
  YS02001910YS02001907 CONDUIT    671.78     0  01:59      0.86    0.38    1.00
  YS02001786YS02001788 CONDUIT   1075.54     0  01:57      2.37    2.07    1.00
  YS02001915YS02001910 CONDUIT    671.82     0  01:59      0.86    0.33    1.00
  YS02001918YS02001915 CONDUIT    394.00     0  01:59      0.50    0.22    1.00
  YS02001923YS02001920 CONDUIT    390.83     0  01:59      0.78    0.18    1.00
  YS02001926YS02001923 CONDUIT    315.30     0  02:00      0.87    0.45    1.00
  YS02001929YS02001926 CONDUIT    269.73     0  01:59      0.93    0.13    1.00
  YS02001920YS02001918 CONDUIT    393.86     0  01:59      0.75    0.38    1.00
  YS02001629YS02163301 CONDUIT    224.51     0  01:48      0.29    0.28    1.00
  YS02001619YS02001622 CONDUIT    336.78     0  02:16      0.76    0.50    1.00
  YS02001622YS02001625 CONDUIT    336.63     0  02:16      0.43    0.18    1.00
  YS02001625YS02001629 CONDUIT    207.63     0  01:47      0.31    0.10    1.00
  YS02163301YS02001633 CONDUIT    224.74     0  01:48      0.29    0.21    1.00
  YS02163601YS02164001 CONDUIT    417.38     0  01:51      0.53    0.37    1.00
  YS02164001YS02001641 CONDUIT    417.60     0  01:51      0.53    0.57    1.00
  YS02001641YS02001644 CONDUIT    417.82     0  01:51      0.53    1.35    1.00
  YS02001647YS02001649 CONDUIT    691.11     0  02:57      0.88    0.36    1.00
  YS02006553YS02006556 CONDUIT    682.71     0  03:22      0.87    0.58    1.00
  YS02006556YS02006558 CONDUIT    682.76     0  03:22      0.87    0.54    1.00
  YSB6556YSB1171       CONDUIT     43.98     0  01:54      0.13    0.05    0.82
  YS02001907YS02006553 CONDUIT    682.68     0  03:22      0.76    0.80    1.00
  YS02006558YS02006561 CONDUIT   1095.28     0  01:57      3.87    2.42    1.00
  YS02001633YS02163601 CONDUIT    417.34     0  01:51      0.53    0.44    1.00
  YS02001644YS02001647 CONDUIT    691.17     0  02:57      0.88    0.41    1.00
  YS02001745YS02001748 CONDUIT    395.73     0  02:16      1.73    0.15    0.96
  YS02001748YS02001751 CONDUIT    395.68     0  02:16      1.26    0.20    1.00
  YS02001751YS02001754 CONDUIT    395.79     0  02:16      1.03    0.19    1.00
  YS02001754YS02001757 CONDUIT    395.76     0  02:16      0.50    0.16    1.00
  YS02001882YS02001884 CONDUIT     20.66     0  01:52      0.12    0.02    1.00
  YS02001884YS02001887 CONDUIT     48.15     0  01:53      0.09    0.06    1.00
  YS02001890YS02001895 CONDUIT    521.03     0  01:58      0.66    0.24    1.00
  YS02001895YS02001898 CONDUIT    521.39     0  01:58      0.66    0.90    1.00
  YS02001898YS02001901 CONDUIT    521.17     0  01:58      0.66    0.34    1.00
  YS02001901YS02001904 CONDUIT    521.58     0  01:58      0.66    0.81    1.00
  YS02001904YS02001907 CONDUIT    521.12     0  01:57      0.66    0.18    1.00
  YS02001887YS02001890 CONDUIT    606.25     0  02:15      0.77    1.04    1.00
  YS02001652YS02001649 CONDUIT    477.16     0  02:16      0.61    0.24    1.00
  YS02001655YS02001652 CONDUIT    476.97     0  02:16      1.09    0.23    1.00
  YS02001658YS02001655 CONDUIT    476.50     0  02:16      1.45    0.20    1.00
  YS02001661YS02001658 CONDUIT    500.33     0  02:16      1.85    0.20    1.00
  YS02001664YS02001661 CONDUIT    772.51     0  02:05      1.75    0.24    0.76
  YSB1154YSB6556       CONDUIT     43.64     0  01:53      0.17    0.08    0.72
  YSB1174YSB1171       CONDUIT     35.14     0  01:50      0.10    0.05    0.83
  YSB1171HS02004479    CONDUIT     78.00     0  01:53      0.54    0.05    0.67
  HS02004881HS02006253 CONDUIT    139.58     0  01:55      2.11    0.03    0.26
  YS02001793JiankangQianchi CONDUIT    997.23     0  01:57     13.01    0.08    1.00
  YS02001757CaochengTiaoxuchi CONDUIT   2139.27     0  02:03      3.75    0.94    1.00
  WSF200WS02003060     CONDUIT    810.98     0  01:58      2.05    0.18    0.39
  1                    CONDUIT   1020.23     0  02:03      3.34    0.36    0.41
  2                    CONDUIT    179.65     0  01:55      5.68    0.43    0.46
  3                    CONDUIT    466.53     0  06:30      9.68    0.74    0.65
  4                    CONDUIT      0.00     0  00:00      0.00    0.00    0.00
  CC-Pump-1            PUMP       200.00     0  04:00              1.00
  CC-Pump-2            PUMP       200.00     0  01:40              1.00
  JK-Pump-1            PUMP       300.00     0  00:00              1.00
  JK-Pump-2            PUMP       300.00     0  03:30              1.00
  XR-Pump-1            PUMP        95.00     0  00:00              1.00
  XR-Pump-2            PUMP        94.98     0  03:30              1.00
  XR-Pump-3            PUMP        95.00     0  00:00              1.00
  XR-Pump-4            PUMP        95.00     0  04:00              1.00
  
  
  ***************************
  Flow Classification Summary
  ***************************
  
  -------------------------------------------------------------------------------------
                      Adjusted    ---------- Fraction of Time in Flow Class ---------- 
                       /Actual         Up    Down  Sub   Sup   Up    Down  Norm  Inlet 
  Conduit               Length    Dry  Dry   Dry   Crit  Crit  Crit  Crit  Ltd   Ctrl  
  -------------------------------------------------------------------------------------
  WS02003066WSF200        1.00   0.06  0.00  0.00  0.00  0.94  0.00  0.00  0.58  0.00
  WS02006287WS02006284    1.00   0.04  0.01  0.00  0.57  0.38  0.00  0.00  0.65  0.00
  WS02006284WS02006280    1.00   0.04  0.00  0.00  0.00  0.00  0.00  0.96  0.00  0.00
  WS02006280WS02006229    1.00   0.04  0.00  0.00  0.00  0.00  0.00  0.96  0.00  0.00
  WS02006229WS02006228    1.00   0.00  0.00  0.00  0.99  0.00  0.00  0.01  0.00  0.00
  WS02006256WS02006235    1.00   0.00  0.00  0.00  1.00  0.00  0.00  0.00  0.00  0.00
  WS02006253WS02006251    1.00   0.03  0.01  0.00  0.96  0.00  0.00  0.00  0.00  0.00
  WS02006252WS02006251    1.00   0.06  0.00  0.00  0.00  0.00  0.94  0.00  0.00  0.00
  WS02006251WS02006249    1.00   0.00  0.00  0.00  1.00  0.00  0.00  0.00  0.18  0.00
  WS02006249WS02006248    1.00   0.00  0.02  0.00  0.94  0.00  0.04  0.00  0.00  0.00
  WS02006248WS02006247    1.00   0.02  0.00  0.00  0.98  0.00  0.00  0.00  0.06  0.00
  WS02006247WS02006245    1.00   0.02  0.00  0.00  0.98  0.00  0.00  0.00  0.00  0.00
  WS02006245WS02006243    1.00   0.01  0.00  0.00  0.96  0.00  0.00  0.03  0.01  0.00
  WS02006243WS02006242    1.00   0.01  0.00  0.00  0.99  0.00  0.00  0.00  0.16  0.00
  WS02006242WS02006240    1.00   0.00  0.00  0.00  1.00  0.00  0.00  0.00  0.00  0.00
  WS02006240WS02006239    1.00   0.00  0.00  0.00  0.97  0.00  0.00  0.03  0.01  0.00
  WS02006239WS02006238    1.00   0.00  0.00  0.00  1.00  0.00  0.00  0.00  0.00  0.00
  WS02006238WS02006235    1.00   0.00  0.00  0.00  1.00  0.00  0.00  0.00  0.00  0.00
  WS02006235WS02006234    1.00   0.00  0.00  0.00  0.97  0.00  0.03  0.00  0.00  0.00
  WS02006234WS02006232    1.00   0.00  0.00  0.00  1.00  0.00  0.00  0.00  0.06  0.00
  WS02006232WS02006231    1.00   0.00  0.00  0.00  0.99  0.00  0.00  0.00  0.00  0.00
  WS02006231WS02006230    1.00   0.00  0.00  0.00  0.39  0.00  0.61  0.00  0.00  0.00
  WS02006230WS02006229    1.00   0.00  0.00  0.00  0.99  0.00  0.00  0.01  0.01  0.00
  WS02006228WS02006109    1.00   0.00  0.00  0.00  1.00  0.00  0.00  0.00  0.00  0.00
  WS02006116WS02004401    1.00   0.02  0.00  0.00  0.98  0.00  0.00  0.00  0.00  0.00
  WS02006115WS02006116    1.00   0.02  0.00  0.00  0.97  0.00  0.00  0.01  0.00  0.00
  WS02006113WS02006111    1.00   0.02  0.00  0.00  0.07  0.91  0.00  0.00  0.12  0.00
  WS02006112WS02006115    1.00   0.02  0.00  0.00  0.98  0.00  0.00  0.00  0.00  0.00
  WS02006111WS02006112    1.00   0.02  0.00  0.00  0.98  0.00  0.00  0.00  0.88  0.00
  WS02006110WS02006113    1.00   0.01  0.01  0.00  0.98  0.00  0.00  0.00  0.00  0.00
  WS02006109WS02006110    1.00   0.00  0.01  0.00  0.98  0.00  0.01  0.00  0.00  0.00
  WS02004411WS02004412    1.00   0.04  0.00  0.00  0.96  0.00  0.00  0.00  0.00  0.00
  WS02004401WS02004402    1.00   0.02  0.00  0.00  0.98  0.00  0.00  0.00  0.00  0.00
  WS02004413WS02003067    1.00   0.04  0.01  0.00  0.00  0.00  0.95  0.00  0.00  0.00
  WS02004412WS02004413    1.00   0.04  0.00  0.00  0.96  0.00  0.00  0.00  0.03  0.00
  WS02004410WS02004411    1.00   0.04  0.00  0.00  0.96  0.00  0.00  0.00  0.03  0.00
  WS02004409WS02004410    1.00   0.04  0.00  0.00  0.96  0.00  0.00  0.00  0.02  0.00
  WS02004407WS02004409    1.00   0.04  0.00  0.00  0.96  0.00  0.00  0.00  0.89  0.00
  WS02004406WS02004407    1.00   0.00  0.03  0.00  0.96  0.00  0.00  0.00  0.00  0.00
  WS02004405WS02004406    1.00   0.00  0.00  0.00  1.00  0.00  0.00  0.00  0.01  0.00
  WS02004404WS02004405    1.00   0.00  0.00  0.00  1.00  0.00  0.00  0.00  0.00  0.00
  WS02004403WS02004404    1.00   0.00  0.02  0.00  0.98  0.00  0.00  0.00  0.01  0.00
  WS02004402WS02004403    1.00   0.02  0.00  0.00  0.98  0.00  0.00  0.00  0.00  0.00
  WS02004139WS02001211    1.00   0.00  0.00  0.00  1.00  0.00  0.00  0.00  0.00  0.00
  WS02004138WS02004139    1.00   0.00  0.00  0.00  0.99  0.01  0.00  0.00  1.00  0.00
  WS02003067WS02003066    1.00   0.05  0.01  0.00  0.94  0.00  0.00  0.00  0.00  0.00
  WS02001213WS02003059    1.00   0.00  0.00  0.00  0.99  0.00  0.00  0.00  0.00  0.00
  WS02001212WS02001213    1.00   0.00  0.00  0.00  0.92  0.00  0.08  0.00  0.00  0.00
  WS02001211WS02001212    1.00   0.00  0.00  0.00  1.00  0.00  0.00  0.00  0.00  0.00
  WS02003072WS02003073    1.00   0.00  0.00  0.00  0.00  0.00  0.00  1.00  0.00  0.00
  WS02003069WS02003072    1.00   0.00  0.00  0.00  0.99  0.01  0.00  0.00  0.19  0.00
  WS02003060WS02003069    1.00   0.00  0.00  0.00  0.98  0.02  0.00  0.00  0.13  0.00
  WS02003059WS02003060    1.00   0.00  0.00  0.00  1.00  0.00  0.00  0.00  0.01  0.00
  HS02004901HS02004770    1.00   0.04  0.00  0.00  0.96  0.00  0.00  0.00  0.00  0.00
  HS02004876HS02004881    1.00   0.02  0.00  0.00  0.84  0.14  0.00  0.00  0.00  0.00
  HS02004870HS02004876    1.00   0.01  0.00  0.00  0.99  0.00  0.00  0.00  0.95  0.00
  HS02004842HS02004848    1.00   0.00  0.04  0.00  0.96  0.00  0.00  0.00  0.57  0.00
  HS02004837HS02004842    1.00   0.00  0.00  0.00  0.99  0.01  0.00  0.00  0.11  0.00
  HS02004830HS02004837    1.00   0.00  0.00  0.00  1.00  0.00  0.00  0.00  0.99  0.00
  HS02004824HS02004830    1.00   0.00  0.00  0.00  1.00  0.00  0.00  0.00  0.03  0.00
  HS02004817HS02004824    1.00   0.00  0.00  0.00  1.00  0.00  0.00  0.00  0.94  0.00
  HS02004770HS02004777    1.00   0.00  0.04  0.00  0.96  0.00  0.00  0.00  0.03  0.00
  HS02004799HS02004480    1.00   0.00  0.02  0.00  0.95  0.00  0.02  0.00  0.00  0.00
  HS02004792HS02004799    1.00   0.00  0.00  0.00  0.99  0.01  0.00  0.00  0.98  0.00
  HS02004788HS02004792    1.00   0.00  0.00  0.00  0.99  0.01  0.00  0.00  0.98  0.00
  HS02004785HS02004788    1.00   0.00  0.00  0.00  1.00  0.00  0.00  0.00  0.00  0.00
  HS02004777HS02004785    1.00   0.00  0.00  0.00  1.00  0.00  0.00  0.00  0.13  0.00
  HS02004480HS02004478    1.00   0.04  0.00  0.00  0.64  0.00  0.00  0.32  0.00  0.00
  HS02004479HS02004480    1.00   0.03  0.00  0.00  0.97  0.00  0.00  0.00  0.12  0.00
  HS02004862HS02004870    1.00   0.00  0.00  0.00  1.00  0.00  0.00  0.00  0.04  0.00
  HS02004848HS02004852    1.00   0.04  0.00  0.00  0.96  0.00  0.00  0.00  0.78  0.00
  HS02004856HS02004862    1.00   0.00  0.05  0.00  0.95  0.00  0.00  0.00  0.82  0.00
  HS02004852HS02004856    1.00   0.04  0.00  0.00  0.96  0.00  0.00  0.00  0.77  0.00
  HS02004802HS02004478    1.00   0.04  0.00  0.00  0.96  0.00  0.00  0.00  0.03  0.00
  HS02004478WS02006287    1.00   0.05  0.00  0.00  0.69  0.26  0.00  0.00  0.62  0.00
  HS02004817HS02004807    1.00   0.00  0.04  0.00  0.96  0.00  0.00  0.00  0.01  0.00
  HS02004807HS02004802    1.00   0.04  0.00  0.00  0.96  0.00  0.00  0.00  0.00  0.00
  YS02001759YS02001757    1.00   0.00  0.00  0.00  1.00  0.00  0.00  0.00  0.16  0.00
  YS02001762YS02001759    1.00   0.00  0.00  0.00  1.00  0.00  0.00  0.00  0.03  0.00
  YS02001765YS02001762    1.00   0.00  0.00  0.00  1.00  0.00  0.00  0.00  0.14  0.00
  YS02001770YS02001767    1.00   0.00  0.00  0.00  1.00  0.00  0.00  0.00  0.00  0.00
  YS02001774YS02001770    1.00   0.00  0.04  0.00  0.96  0.00  0.00  0.00  0.03  0.00
  YS02001779YS02001774    1.00   0.00  0.00  0.00  1.00  0.00  0.00  0.00  0.18  0.00
  YS02001649YS02001757    1.00   0.00  0.00  0.00  1.00  0.00  0.00  0.00  0.16  0.00
  YS02001767YS02001765    1.00   0.00  0.00  0.00  1.00  0.00  0.00  0.00  0.00  0.00
  YS02006561YS02001783    1.00   0.05  0.00  0.00  0.84  0.11  0.00  0.00  0.51  0.00
  YS02001783YS02001784    1.00   0.00  0.05  0.00  0.95  0.00  0.00  0.00  0.00  0.00
  YS02001784YS02001785    1.00   0.00  0.00  0.00  1.00  0.00  0.00  0.00  0.17  0.00
  YS02001788YS02001790    1.00   0.00  0.00  0.00  0.89  0.11  0.00  0.00  0.25  0.00
  YS02001790YS02001791    1.00   0.00  0.00  0.00  0.86  0.14  0.00  0.00  0.07  0.00
  YS02001791YS02001793    1.00   0.00  0.00  0.00  0.87  0.13  0.00  0.00  0.02  0.00
  YS02001910YS02001907    1.00   0.00  0.00  0.00  0.98  0.00  0.00  0.02  0.12  0.00
  YS02001786YS02001788    1.00   0.00  0.00  0.00  0.89  0.11  0.00  0.00  0.00  0.00
  YS02001915YS02001910    1.00   0.00  0.00  0.00  0.99  0.01  0.00  0.00  0.16  0.00
  YS02001918YS02001915    1.00   0.00  0.01  0.00  0.98  0.01  0.00  0.00  0.52  0.00
  YS02001923YS02001920    1.00   0.00  0.00  0.00  1.00  0.00  0.00  0.00  0.74  0.00
  YS02001926YS02001923    1.00   0.00  0.03  0.00  0.28  0.00  0.69  0.00  0.00  0.00
  YS02001929YS02001926    1.00   0.00  0.04  0.00  0.96  0.00  0.00  0.00  0.66  0.00
  YS02001920YS02001918    1.00   0.00  0.01  0.00  0.99  0.00  0.00  0.00  0.00  0.00
  YS02001629YS02163301    1.00   0.04  0.00  0.00  0.95  0.00  0.00  0.00  0.00  0.00
  YS02001619YS02001622    1.00   0.04  0.00  0.00  0.96  0.00  0.00  0.00  0.00  0.00
  YS02001622YS02001625    1.00   0.04  0.00  0.00  0.96  0.00  0.00  0.00  0.05  0.00
  YS02001625YS02001629    1.00   0.04  0.01  0.00  0.94  0.00  0.01  0.00  0.00  0.00
  YS02163301YS02001633    1.00   0.00  0.04  0.00  0.96  0.00  0.00  0.00  0.00  0.00
  YS02163601YS02164001    1.00   0.00  0.03  0.00  0.97  0.00  0.00  0.00  0.00  0.00
  YS02164001YS02001641    1.00   0.01  0.02  0.00  0.97  0.00  0.00  0.00  0.06  0.00
  YS02001641YS02001644    1.00   0.00  0.01  0.00  0.99  0.00  0.00  0.00  0.00  0.00
  YS02001647YS02001649    1.00   0.00  0.05  0.00  0.95  0.00  0.00  0.00  0.01  0.00
  YS02006553YS02006556    1.00   0.01  0.00  0.00  0.99  0.00  0.00  0.00  0.03  0.00
  YS02006556YS02006558    1.00   0.00  0.00  0.00  1.00  0.00  0.00  0.00  0.00  0.00
  YSB6556YSB1171          1.00   0.03  0.01  0.00  0.96  0.00  0.00  0.00  0.00  0.00
  YS02001907YS02006553    1.00   0.00  0.02  0.00  0.98  0.00  0.00  0.00  0.00  0.00
  YS02006558YS02006561    1.00   0.05  0.00  0.00  0.31  0.64  0.00  0.00  0.42  0.00
  YS02001633YS02163601    1.00   0.00  0.01  0.00  0.99  0.00  0.00  0.00  0.15  0.00
  YS02001644YS02001647    1.00   0.00  0.05  0.00  0.95  0.00  0.00  0.00  0.00  0.00
  YS02001745YS02001748    1.00   0.00  0.00  0.00  0.92  0.00  0.00  0.07  0.01  0.00
  YS02001748YS02001751    1.00   0.00  0.00  0.00  0.98  0.02  0.00  0.00  0.14  0.00
  YS02001751YS02001754    1.00   0.00  0.00  0.00  0.95  0.00  0.00  0.05  0.01  0.00
  YS02001754YS02001757    1.00   0.00  0.00  0.00  0.99  0.01  0.00  0.00  0.18  0.00
  YS02001882YS02001884    1.00   0.04  0.00  0.00  0.95  0.00  0.00  0.00  0.00  0.00
  YS02001884YS02001887    1.00   0.03  0.01  0.00  0.96  0.00  0.00  0.00  0.00  0.00
  YS02001890YS02001895    1.00   0.00  0.04  0.00  0.95  0.00  0.00  0.00  0.00  0.00
  YS02001895YS02001898    1.00   0.05  0.00  0.00  0.95  0.00  0.01  0.00  0.00  0.00
  YS02001898YS02001901    1.00   0.05  0.00  0.00  0.95  0.00  0.00  0.00  0.01  0.00
  YS02001901YS02001904    1.00   0.05  0.00  0.00  0.95  0.00  0.00  0.00  0.00  0.00
  YS02001904YS02001907    1.00   0.00  0.04  0.00  0.95  0.00  0.00  0.00  0.00  0.00
  YS02001887YS02001890    1.00   0.00  0.00  0.00  0.98  0.00  0.02  0.00  0.00  0.00
  YS02001652YS02001649    1.00   0.00  0.00  0.00  1.00  0.00  0.00  0.00  0.16  0.00
  YS02001655YS02001652    1.00   0.00  0.00  0.00  0.95  0.00  0.00  0.05  0.01  0.00
  YS02001658YS02001655    1.00   0.00  0.04  0.00  0.94  0.02  0.00  0.00  0.02  0.00
  YS02001661YS02001658    1.00   0.04  0.00  0.00  0.92  0.04  0.00  0.00  0.00  0.00
  YS02001664YS02001661    1.00   0.04  0.00  0.00  0.93  0.03  0.00  0.00  0.10  0.00
  YSB1154YSB6556          1.00   0.04  0.00  0.00  0.96  0.00  0.00  0.00  0.02  0.00
  YSB1174YSB1171          1.00   0.03  0.01  0.00  0.97  0.00  0.00  0.00  0.00  0.00
  YSB1171HS02004479       1.00   0.03  0.00  0.00  0.97  0.00  0.00  0.00  0.11  0.00
  HS02004881HS02006253    1.00   0.03  0.00  0.00  0.89  0.01  0.00  0.07  0.76  0.00
  YS02001793JiankangQianchi    1.00   0.00  0.00  0.00  0.94  0.06  0.00  0.00  0.06  0.00
  YS02001757CaochengTiaoxuchi    1.00   0.00  0.06  0.00  0.89  0.05  0.00  0.00  0.00  0.00
  WSF200WS02003060        1.00   0.00  0.06  0.00  0.62  0.32  0.00  0.00  0.45  0.00
  1                       1.00   0.00  0.00  0.00  0.00  1.00  0.00  0.00  0.57  0.00
  2                       1.00   0.73  0.00  0.00  0.00  0.27  0.00  0.00  0.03  0.00
  3                       1.00   0.53  0.00  0.00  0.00  0.47  0.00  0.00  0.19  0.00
  4                       1.00   1.00  0.00  0.00  0.00  0.00  0.00  0.00  0.00  0.00
  
  
  *************************
  Conduit Surcharge Summary
  *************************
  
  ----------------------------------------------------------------------------
                                                           Hours        Hours 
                         --------- Hours Full --------   Above Full   Capacity
  Conduit                Both Ends  Upstream  Dnstream   Normal Flow   Limited
  ----------------------------------------------------------------------------
  WS02006229WS02006228        2.17      2.25      2.17      2.65         2.17
  WS02006256WS02006235        6.35      6.35      7.12      1.07         0.01
  WS02006252WS02006251        0.09      0.09      0.25      0.21         0.01
  WS02006251WS02006249        0.01      0.01      0.01      0.10         0.01
  WS02006249WS02006248        0.01      0.01      0.01      5.56         0.01
  WS02006248WS02006247        0.01      0.01      0.18      0.01         0.01
  WS02006247WS02006245        0.22      0.29      0.22      5.95         0.21
  WS02006245WS02006243        0.30      0.30      0.56      0.01         0.01
  WS02006243WS02006242        0.62      0.62      1.52      0.01         0.01
  WS02006242WS02006240        0.92      0.92      1.66      0.27         0.01
  WS02006240WS02006239        1.20      1.20      1.41      0.01         0.01
  WS02006239WS02006238        1.67      1.67      1.74      0.01         0.01
  WS02006238WS02006235        1.70      1.70      1.84      0.01         0.02
  WS02006235WS02006234        1.42      1.42      1.64      6.37         0.04
  WS02006234WS02006232        1.47      1.47      1.94      0.01         0.01
  WS02006232WS02006231        0.92      0.92      1.94      0.01         0.01
  WS02006231WS02006230        0.79      0.79      1.09      6.36         0.02
  WS02006230WS02006229        2.35      2.56      2.35      6.45         2.34
  WS02006228WS02006109        2.22      2.30      2.22      3.58         2.22
  WS02006116WS02004401        0.55      0.55      0.56      0.49         0.48
  WS02006115WS02006116        0.36      0.37      0.38      0.24         0.24
  WS02006112WS02006115        0.32      0.32      1.54      0.01         0.01
  WS02006111WS02006112        0.01      0.01      2.72      0.01         0.01
  WS02006110WS02006113        0.01      0.01      2.27      0.01         0.01
  WS02006109WS02006110        1.44      1.44      2.30      1.44         0.01
  WS02004411WS02004412        0.01      0.01      0.01      0.53         0.01
  WS02004401WS02004402        0.56      0.56      0.60      0.01         0.01
  WS02004410WS02004411        0.01      0.01      0.01      0.46         0.01
  WS02004409WS02004410        0.01      0.01      0.01      0.27         0.01
  WS02004406WS02004407        0.01      0.01      0.72      0.01         0.01
  WS02004405WS02004406        0.72      0.78      0.72      1.49         0.72
  WS02004404WS02004405        0.78      0.84      0.78      6.25         0.78
  WS02004403WS02004404        0.61      0.61      0.84      0.01         0.01
  WS02004402WS02004403        0.60      0.60      0.61      0.55         0.54
  WS02003072WS02003073        0.01      0.01      0.01      5.90         0.01
  HS02004876HS02004881        0.01      0.01      0.01      0.49         0.01
  HS02004785HS02004788        0.01      0.01      0.01      0.35         0.01
  HS02004480HS02004478        0.01      0.01      0.01      0.79         0.01
  YS02001759YS02001757        6.09      6.09      6.12      0.01         0.01
  YS02001762YS02001759        6.09      6.09      6.09      0.01         0.01
  YS02001765YS02001762        6.08      6.08      6.09      0.01         0.01
  YS02001770YS02001767        6.07      6.07      6.07      0.44         0.77
  YS02001774YS02001770        6.07      6.07      6.08      0.01         0.01
  YS02001779YS02001774        6.04      6.04      6.08      0.01         0.01
  YS02001649YS02001757        6.08      6.08      6.12      0.01         0.01
  YS02001767YS02001765        6.07      6.07      6.08      0.01         0.01
  YS02006561YS02001783        1.61      1.61      2.13      0.01         0.01
  YS02001783YS02001784        2.11      2.13      2.16      2.02         1.92
  YS02001784YS02001785        2.06      2.16      2.06      2.75         2.06
  YS02001788YS02001790        2.04      2.04      5.35      0.01         0.01
  YS02001790YS02001791        5.35      5.35      5.43      1.53         1.48
  YS02001791YS02001793        5.43      5.43      5.62      0.01         0.01
  YS02001910YS02001907        1.94      1.94      2.26      0.01         0.01
  YS02001786YS02001788        2.04      2.06      2.04      2.41         2.04
  YS02001915YS02001910        1.75      1.75      1.94      0.01         0.01
  YS02001918YS02001915        1.51      1.51      1.75      0.01         0.01
  YS02001923YS02001920        1.32      1.32      1.55      0.01         0.01
  YS02001926YS02001923        0.01      0.01      0.01      0.01         0.01
  YS02001929YS02001926        0.01      0.01      0.01      0.01         0.01
  YS02001920YS02001918        1.51      1.51      1.55      0.01         0.01
  YS02001629YS02163301        6.06      6.06      6.07      0.01         0.01
  YS02001619YS02001622        6.02      6.02      6.02      0.01         0.01
  YS02001622YS02001625        6.02      6.02      6.05      0.01         0.01
  YS02001625YS02001629        6.02      6.02      6.05      0.01         0.01
  YS02163301YS02001633        6.07      6.07      6.08      0.01         0.01
  YS02163601YS02164001        6.08      6.08      6.09      0.01         0.01
  YS02164001YS02001641        6.08      6.08      6.08      0.01         0.02
  YS02001641YS02001644        6.08      6.08      6.08      2.21         2.14
  YS02001647YS02001649        6.05      6.05      6.08      0.01         0.01
  YS02006553YS02006556        2.11      2.11      2.31      0.01         0.01
  YS02006556YS02006558        2.18      2.18      2.37      0.01         0.01
  YSB6556YSB1171              0.01      0.01      0.14      0.01         0.01
  YS02001907YS02006553        2.76      2.76      2.95      0.01         0.01
  YS02006558YS02006561        1.78      2.09      1.78      2.63         1.78
  YS02001633YS02163601        6.08      6.08      6.09      0.01         0.01
  YS02001644YS02001647        6.05      6.05      6.08      0.01         0.01
  YS02001745YS02001748        0.01      0.01      5.99      0.01         0.01
  YS02001748YS02001751        6.00      6.00      6.02      0.01         0.01
  YS02001751YS02001754        6.02      6.02      6.04      0.01         0.01
  YS02001754YS02001757        6.05      6.05      6.12      0.01         0.01
  YS02001882YS02001884        1.76      1.76      1.79      0.01         0.01
  YS02001884YS02001887        1.84      1.84      1.87      0.01         0.01
  YS02001890YS02001895        1.73      1.73      1.96      0.01         0.01
  YS02001895YS02001898        1.71      1.71      1.73      0.01         0.01
  YS02001898YS02001901        1.74      1.74      1.84      0.01         0.01
  YS02001901YS02001904        1.81      1.81      1.84      0.01         0.01
  YS02001904YS02001907        1.81      1.81      2.35      0.01         0.01
  YS02001887YS02001890        1.90      1.90      1.92      0.20         0.01
  YS02001652YS02001649        6.06      6.06      6.08      0.01         0.01
  YS02001655YS02001652        6.02      6.02      6.05      0.01         0.01
  YS02001658YS02001655        5.99      5.99      6.02      0.01         0.01
  YS02001661YS02001658        0.24      0.24      5.99      0.01         0.01
  YS02001664YS02001661        0.01      0.01      1.85      0.01         0.01
  YS02001793JiankangQianchi        5.57      5.57      6.12      0.01         0.01
  YS02001757CaochengTiaoxuchi        5.59      5.59      6.12      0.01         0.01
  
  
  ***************
  Pumping Summary
  ***************
  
  ---------------------------------------------------------------------------------------------------------
                                                  Min       Avg       Max     Total     Power    % Time Off
                        Percent   Number of      Flow      Flow      Flow    Volume     Usage    Pump Curve
  Pump                 Utilized   Start-Ups       LPS       LPS       LPS  10^6 ltr     Kw-hr    Low   High
  ---------------------------------------------------------------------------------------------------------
  CC-Pump-1               55.31           2      0.00    178.89    200.00     2.820      1.91    0.0    0.0
  CC-Pump-2               30.34           1      0.00    191.36    200.00     1.629      2.27    0.0   13.2
  JK-Pump-1               55.32           5      0.00    218.35    300.00     2.550     15.19    0.0    0.0
  JK-Pump-2               19.14           4      0.00    168.31    300.00     0.686      5.42    0.0    0.0
  XR-Pump-1              100.00           1      0.00     91.81     95.00     2.508     14.71    0.0    0.0
  XR-Pump-2               17.00           3      0.00     48.12     94.98     0.228      1.88    0.0    0.0
  XR-Pump-3               97.87           2      0.00     87.06     95.00     2.337     13.77    0.0    0.0
  XR-Pump-4               63.82           4      0.00     86.55     95.00     1.510      7.76    0.0    0.0
  

  Analysis begun on:  Thu Dec 23 18:19:13 2021
  Analysis ended on:  Thu Dec 23 18:19:17 2021
  Total elapsed time: 00:00:04