
  EPA STORM WATER MANAGEMENT MODEL - VERSION 5.1 (Build 5.3.0.dev0)
  --------------------------------------------------------------

  WARNING 04: minimum elevation drop used for Conduit WS02004404WS02004405
  WARNING 03: negative offset ignored for Link YS02001904YS02001907
  
  *********************************************************
  NOTE: The summary statistics displayed in this report are
  based on results found at every computational time step,  
  not just on results from each reporting time step.
  *********************************************************
  
  ****************
  Analysis Options
  ****************
  Flow Units ............... LPS
  Process Models:
    Rainfall/Runoff ........ YES
    RDII ................... NO
    Snowmelt ............... NO
    Groundwater ............ NO
    Flow Routing ........... YES
    Ponding Allowed ........ NO
    Water Quality .......... NO
  Infiltration Method ...... HORTON
  Flow Routing Method ...... DYNWAVE
  Surcharge Method ......... EXTRAN
  Starting Date ............ 08/28/2015 08:00:00
  Ending Date .............. 08/28/2015 15:50:00
  Antecedent Dry Days ...... 8.0
  Report Time Step ......... 00:01:00
  Wet Time Step ............ 00:01:00
  Dry Time Step ............ 00:01:00
  Routing Time Step ........ 5.00 sec
  Variable Time Step ....... YES
  Maximum Trials ........... 8
  Number of Threads ........ 4
  Head Tolerance ........... 0.001500 m
  
  
  **************************        Volume         Depth
  Runoff Quantity Continuity     hectare-m            mm
  **************************     ---------       -------
  Total Precipitation ......         7.641        16.729
  Evaporation Loss .........         0.000         0.000
  Infiltration Loss ........         1.880         4.117
  Surface Runoff ...........         4.668        10.221
  Final Storage ............         1.093         2.393
  Continuity Error (%) .....        -0.013
  
  
  **************************        Volume        Volume
  Flow Routing Continuity        hectare-m      10^6 ltr
  **************************     ---------     ---------
  Dry Weather Inflow .......         0.616         6.165
  Wet Weather Inflow .......         4.667        46.671
  Groundwater Inflow .......         0.000         0.000
  RDII Inflow ..............         0.000         0.000
  External Inflow ..........         0.102         1.024
  External Outflow .........         1.879        18.788
  Flooding Loss ............         2.940        29.398
  Evaporation Loss .........         0.000         0.000
  Exfiltration Loss ........         0.000         0.000
  Initial Stored Volume ....         0.076         0.761
  Final Stored Volume ......         0.652         6.524
  Continuity Error (%) .....        -0.164
  
  
  *************************
  Highest Continuity Errors
  *************************
  Node HS02004842 (12.71%)
  Node YS02001884 (12.13%)
  Node HS02004817 (2.32%)
  Node YSB1171 (2.18%)
  Node YS02163301 (1.65%)
  
  
  ***************************
  Time-Step Critical Elements
  ***************************
  Link WS02006252WS02006251 (53.43%)
  Link 3 (39.97%)
  Link WS02006238WS02006235 (1.88%)
  
  
  ********************************
  Highest Flow Instability Indexes
  ********************************
  Link YS02163301YS02001633 (51)
  Link YS02163601YS02164001 (51)
  Link YS02001629YS02163301 (50)
  Link YS02001619YS02001622 (47)
  Link YS02164001YS02001641 (46)
  
  
  *************************
  Routing Time Step Summary
  *************************
  Minimum Time Step           :     0.44 sec
  Average Time Step           :     0.76 sec
  Maximum Time Step           :     5.00 sec
  Percent in Steady State     :    -0.00
  Average Iterations per Step :     4.83
  Percent Not Converging      :    20.44
  
  
  ***************************
  Subcatchment Runoff Summary
  ***************************
  
  ------------------------------------------------------------------------------------------------------------------------------
                            Total      Total      Total      Total     Imperv       Perv      Total       Total     Peak  Runoff
                           Precip      Runon       Evap      Infil     Runoff     Runoff     Runoff      Runoff   Runoff   Coeff
  Subcatchment                 mm         mm         mm         mm         mm         mm         mm    10^6 ltr      LPS
  ------------------------------------------------------------------------------------------------------------------------------
  sub0                      16.73       0.00       0.00       0.97      14.29       0.20      14.50        0.01     3.66   0.867
  sub1                      16.73       0.00       0.00       1.58      13.63       0.26      13.89        0.09    24.51   0.830
  sub2                      16.73       0.00       0.00       5.80       9.63       0.39      10.02        0.09    22.91   0.599
  sub3                      16.73       0.00       0.00       5.88       9.59       0.31       9.90        0.22    50.49   0.592
  sub4                      16.73       0.00       0.00       1.65      13.47       0.19      13.66        0.28    60.01   0.817
  sub5                      16.73       0.00       0.00       0.99      14.24       0.18      14.42        0.16    43.61   0.862
  sub7                      16.73       0.00       0.00       1.26      13.97       0.24      14.21        0.05    13.82   0.849
  sub8                      16.73       0.00       0.00       1.27      13.96       0.23      14.19        0.09    25.44   0.848
  sub9                      16.73       0.00       0.00       1.27      13.96       0.23      14.19        0.07    19.02   0.848
  sub10                     16.73       0.00       0.00       1.13      14.10       0.21      14.30        0.16    42.73   0.855
  sub11                     16.73       0.00       0.00       1.12      14.11       0.21      14.33        0.17    47.25   0.857
  sub12                     16.73       0.00       0.00       1.83      13.37       0.35      13.71        0.12    35.87   0.820
  sub14                     16.73       0.00       0.00       1.27      13.95       0.23      14.19        0.14    37.43   0.848
  sub15                     16.73       0.00       0.00       4.53      10.73       0.49      11.22        0.19    51.47   0.671
  sub16                     16.73       0.00       0.00       4.88      10.29       0.64      10.93        0.11    32.57   0.653
  sub17                     16.73       0.00       0.00       4.74      10.44       0.61      11.05        0.09    26.81   0.661
  sub22                     16.73       0.00       0.00       6.60       8.75       0.59       9.34        0.59   160.16   0.558
  sub23                     16.73       0.00       0.00       5.59       9.67       0.60      10.27        0.49   134.74   0.614
  sub60                     16.73       0.00       0.00       1.94      11.65       0.06      11.71        3.55   386.89   0.700
  sub61                     16.73       0.00       0.00       2.75      11.65       0.09      11.73        3.62   476.87   0.701
  sub62                     16.73       0.00       0.00       1.26      12.72       0.07      12.79        3.93   491.27   0.765
  sub63                     16.73       0.00       0.00       4.75      10.14       0.10      10.23        3.10   437.54   0.612
  sub64                     16.73       0.00       0.00       2.45      11.19       0.06      11.26        3.42   367.58   0.673
  sub65                     16.73       0.00       0.00       2.11      11.40       0.06      11.46        3.52   372.98   0.685
  sub66                     16.73       0.00       0.00       4.79       9.55       0.06       9.61        2.95   336.52   0.575
  sub67                     16.73       0.00       0.00       1.24      13.25       0.09      13.35        4.12   605.48   0.798
  sub68                     16.73       0.00       0.00       2.25      12.20       0.10      12.30        3.78   521.64   0.735
  sub69                     16.73       0.00       0.00       2.37      12.50       0.14      12.64        2.95   482.20   0.755
  sub70                     16.73      12.90       0.00       8.98      17.16       1.09      18.25        4.18   460.88   0.616
  sub71                     16.73       0.00       0.00       1.27      12.46       0.07      12.53        2.96   345.19   0.749
  sub72                     16.73       0.00       0.00       1.14      10.39       0.03      10.43        2.12   185.81   0.623
  sub73                     16.73      17.77       0.00       9.78      19.72       1.38      21.10        4.96   482.28   0.612
  sub74                     16.73       0.00       0.00      12.48       3.71       0.07       3.78        1.51   261.10   0.226
  
  
  ******************
  Node Depth Summary
  ******************
  
  ---------------------------------------------------------------------------------
                                 Average  Maximum  Maximum  Time of Max    Reported
                                   Depth    Depth      HGL   Occurrence   Max Depth
  Node                 Type       Meters   Meters   Meters  days hr:min      Meters
  ---------------------------------------------------------------------------------
  WS02001211           JUNCTION     0.65     0.70     5.54     0  07:50        0.70
  WS02001212           JUNCTION     0.38     0.44     5.51     0  02:02        0.44
  WS02001213           JUNCTION     0.62     0.73     5.49     0  02:01        0.73
  WS02003069           JUNCTION     0.44     0.61     5.20     0  02:02        0.61
  WS02003072           JUNCTION     0.51     0.67     5.04     0  02:02        0.67
  WS02003073           JUNCTION     0.31     0.41     4.48     0  02:03        0.41
  WS02003060           JUNCTION     0.40     0.54     5.47     0  02:01        0.54
  WS02003066           JUNCTION     0.24     0.36     5.91     0  01:58        0.36
  WS02003059           JUNCTION     0.68     0.80     5.48     0  02:01        0.80
  WS02003067           JUNCTION     0.58     0.79     6.11     0  01:57        0.79
  WS02004401           JUNCTION     0.70     1.11     7.11     0  01:55        1.11
  WS02004402           JUNCTION     0.73     1.12     7.08     0  01:55        1.11
  WS02004403           JUNCTION     0.75     1.10     7.03     0  01:55        1.10
  WS02004404           JUNCTION     0.82     1.16     7.01     0  01:55        1.16
  WS02004406           JUNCTION     0.83     1.11     6.94     0  01:55        1.11
  WS02004409           JUNCTION     0.51     0.86     6.63     0  01:57        0.86
  WS02004410           JUNCTION     0.53     0.86     6.58     0  01:57        0.86
  WS02004411           JUNCTION     0.55     0.85     6.53     0  01:57        0.85
  WS02004412           JUNCTION     0.56     0.84     6.48     0  01:57        0.84
  WS02004413           JUNCTION     0.72     0.98     6.45     0  01:57        0.98
  WS02004405           JUNCTION     0.82     1.14     6.99     0  01:55        1.14
  WS02006109           JUNCTION     0.79     1.27     7.88     0  01:56        1.26
  WS02006110           JUNCTION     0.77     1.11     7.70     0  01:54        1.11
  WS02006111           JUNCTION     0.25     0.61     7.32     0  01:55        0.61
  WS02006112           JUNCTION     0.88     1.39     7.28     0  01:55        1.39
  WS02006113           JUNCTION     0.35     0.62     7.51     0  01:55        0.62
  WS02006115           JUNCTION     0.60     1.07     7.21     0  01:55        1.07
  WS02006116           JUNCTION     0.68     1.12     7.16     0  01:55        1.12
  WS02006230           JUNCTION     0.76     1.39     8.13     0  01:56        1.38
  WS02006231           JUNCTION     0.52     1.02     8.14     0  01:54        1.01
  WS02006232           JUNCTION     0.65     1.12     8.16     0  01:45        1.10
  WS02006234           JUNCTION     0.56     1.09     8.24     0  01:45        0.99
  WS02006235           JUNCTION     0.59     1.04     8.20     0  01:45        0.99
  WS02006238           JUNCTION     0.61     1.06     8.21     0  01:45        1.01
  WS02006240           JUNCTION     0.52     1.05     8.34     0  01:45        0.88
  WS02006242           JUNCTION     0.58     1.38     8.65     0  01:45        0.92
  WS02006243           JUNCTION     0.46     0.81     8.23     0  01:51        0.78
  WS02006245           JUNCTION     0.44     0.74     8.23     0  01:51        0.73
  WS02006247           JUNCTION     0.46     0.74     8.24     0  01:50        0.72
  WS02006248           JUNCTION     0.40     0.64     8.23     0  01:55        0.64
  WS02006249           JUNCTION     0.43     0.64     8.24     0  01:56        0.64
  WS02006239           JUNCTION     0.57     1.12     8.32     0  01:45        0.95
  WS02006251           JUNCTION     0.42     0.67     8.34     0  02:50        0.67
  WS02006252           JUNCTION     0.34     0.59     8.83     0  04:59        0.58
  WS02006253           JUNCTION     0.45     0.70     8.34     0  02:50        0.69
  WS02006256           JUNCTION     0.94     1.20     8.14     0  07:40        1.20
  WS02004138           JUNCTION     0.15     0.17     7.42     0  04:23        0.17
  WS02004407           JUNCTION     0.23     0.37     6.68     0  01:56        0.37
  WS02006228           JUNCTION     0.80     1.39     8.04     0  01:55        1.37
  WS02006229           JUNCTION     0.78     1.42     8.11     0  01:54        1.42
  WS02006280           JUNCTION     0.08     0.25     8.52     0  01:55        0.25
  WS02006284           JUNCTION     0.39     0.64     9.04     0  01:55        0.64
  WS02006287           JUNCTION     0.12     0.38     9.33     0  01:54        0.38
  WSF200               JUNCTION     0.23     0.39     5.62     0  01:59        0.39
  HS02004901           JUNCTION     0.14     0.36    10.18     0  01:52        0.36
  HS02004881           JUNCTION     0.01     0.05     9.08     0  01:55        0.05
  HS02004876           JUNCTION     0.05     0.16     9.19     0  01:55        0.16
  HS02004870           JUNCTION     0.02     0.09     9.38     0  01:55        0.09
  HS02004862           JUNCTION     0.03     0.11     9.49     0  01:55        0.11
  HS02004856           JUNCTION     0.08     0.15     9.58     0  01:55        0.15
  HS02004852           JUNCTION     0.02     0.07     9.59     0  01:55        0.07
  HS02004848           JUNCTION     0.01     0.07     9.67     0  01:55        0.07
  HS02004842           JUNCTION     0.34     0.40     9.67     0  01:55        0.40
  HS02004837           JUNCTION     0.03     0.09     9.67     0  01:55        0.09
  HS02004830           JUNCTION     0.05     0.10     9.57     0  01:56        0.10
  HS02004824           JUNCTION     0.03     0.12     9.53     0  01:55        0.12
  HS02004817           JUNCTION     0.46     0.69     9.53     0  01:55        0.69
  HS02004807           JUNCTION     0.14     0.36     9.53     0  01:55        0.36
  HS02004802           JUNCTION     0.18     0.39     9.52     0  01:55        0.39
  HS02004799           JUNCTION     0.14     0.45     9.66     0  01:53        0.45
  HS02004792           JUNCTION     0.05     0.20     9.73     0  01:52        0.20
  HS02004788           JUNCTION     0.04     0.15    10.05     0  01:53        0.15
  HS02004785           JUNCTION     0.06     0.23    10.14     0  01:52        0.23
  HS02004777           JUNCTION     0.16     0.37    10.17     0  01:52        0.37
  HS02004770           JUNCTION     0.14     0.35    10.18     0  01:52        0.35
  HS02004480           JUNCTION     0.10     0.37     9.61     0  01:53        0.37
  HS02004479           JUNCTION     0.14     0.41     9.61     0  01:53        0.41
  HS02004478           JUNCTION     0.08     0.27     9.50     0  01:54        0.27
  YS02001745           JUNCTION     0.78     0.92     8.44     0  02:45        0.92
  YS02001748           JUNCTION     1.18     1.37     8.45     0  01:50        1.35
  YS02001751           JUNCTION     1.37     1.86     8.74     0  01:48        1.55
  YS02001754           JUNCTION     1.62     1.89     8.50     0  01:48        1.83
  YS02001762           JUNCTION     1.82     2.04     8.44     0  02:42        2.04
  YS02001765           JUNCTION     1.78     1.99     8.44     0  02:59        1.98
  YS02001767           JUNCTION     1.74     1.95     8.44     0  02:39        1.94
  YS02001770           JUNCTION     1.73     1.93     8.42     0  02:57        1.92
  YS02001774           JUNCTION     1.80     1.99     8.41     0  03:05        1.98
  YS02001779           JUNCTION     1.55     1.68     8.37     0  01:47        1.68
  YS02001882           JUNCTION     0.71     1.68     8.40     0  01:57        1.62
  YS02001884           JUNCTION     0.80     1.77     8.39     0  01:57        1.72
  YS02001759           JUNCTION     1.86     2.08     8.45     0  02:24        2.08
  YS02001887           JUNCTION     0.88     1.82     8.36     0  01:57        1.80
  YS02001890           JUNCTION     0.91     1.81     8.32     0  01:57        1.81
  YS02001898           JUNCTION     0.67     1.58     8.31     0  01:57        1.56
  YS02001901           JUNCTION     0.79     1.69     8.29     0  01:57        1.67
  YS02001904           JUNCTION     0.77     1.64     8.27     0  01:57        1.63
  YS02001907           JUNCTION     1.09     1.96     8.25     0  01:57        1.96
  YS02001910           JUNCTION     0.89     1.97     8.48     0  01:57        1.84
  YS02001915           JUNCTION     0.69     1.92     8.64     0  01:57        1.72
  YS02001918           JUNCTION     0.43     1.81     8.88     0  01:57        1.54
  YS02001619           JUNCTION     1.33     1.61     8.54     0  01:47        1.47
  YS02001629           JUNCTION     1.68     1.85     8.40     0  01:47        1.85
  YS02001641           JUNCTION     1.78     1.94     8.37     0  01:55        1.93
  YS02001644           JUNCTION     1.78     1.92     8.35     0  01:51        1.92
  YS02001652           JUNCTION     1.63     2.16     8.76     0  02:09        2.00
  YS02001655           JUNCTION     1.40     2.14     8.99     0  02:13        1.81
  YS02001920           JUNCTION     0.53     2.01     9.02     0  01:59        1.72
  YS02001923           JUNCTION     0.35     1.86     9.12     0  01:59        1.60
  YS02001926           JUNCTION     0.37     1.78     9.23     0  01:59        1.40
  YS02001929           JUNCTION     0.23     1.62     9.31     0  01:59        1.12
  YS02001658           JUNCTION     1.12     2.23     9.38     0  02:13        1.52
  YS02001661           JUNCTION     0.89     2.46     9.86     0  02:11        1.41
  YS02001664           JUNCTION     0.40     0.57     8.49     0  04:03        0.56
  YS02001622           JUNCTION     1.35     1.62     8.52     0  01:48        1.50
  YS02001633           JUNCTION     1.78     1.96     8.42     0  01:50        1.94
  YS02001649           JUNCTION     1.83     2.05     8.44     0  01:55        2.05
  YS02001757           JUNCTION     1.95     2.18     8.44     0  03:06        2.18
  YS02001895           JUNCTION     0.67     1.57     8.32     0  01:57        1.57
  YS02001625           JUNCTION     1.64     1.78     8.38     0  01:46        1.78
  YS02163301           JUNCTION     1.72     1.90     8.41     0  01:50        1.88
  YS02163601           JUNCTION     1.83     2.00     8.39     0  01:50        1.98
  YS02164001           JUNCTION     1.76     1.92     8.38     0  01:50        1.91
  YS02001647           JUNCTION     1.62     1.80     8.41     0  02:16        1.79
  YSB1154              JUNCTION     0.28     0.56     9.62     0  01:53        0.56
  YSB6556              JUNCTION     0.17     0.44     9.61     0  01:53        0.44
  YSB1174              JUNCTION     0.23     0.50     9.61     0  01:53        0.50
  YSB1171              JUNCTION     0.43     0.71     9.61     0  01:53        0.71
  YS02006553           JUNCTION     1.10     2.17     8.46     0  01:57        1.96
  YS02006561           JUNCTION     0.43     1.92     8.58     0  01:57        1.08
  YS02006556           JUNCTION     1.06     2.39     8.70     0  01:57        1.92
  YS02006558           JUNCTION     1.10     2.49     8.76     0  01:57        1.97
  YS02001783           JUNCTION     0.76     2.29     8.43     0  01:57        1.47
  YS02001784           JUNCTION     0.78     2.23     8.29     0  01:57        1.41
  YS02001786           JUNCTION     0.73     2.23     8.26     0  01:57        1.26
  YS02001788           JUNCTION     0.70     2.28     8.26     0  01:57        1.13
  YS02001790           JUNCTION     0.93     1.96     7.60     0  01:57        1.29
  YS02001791           JUNCTION     1.00     2.00     7.47     0  01:56        1.27
  YS02001793           JUNCTION     1.51     2.02     6.85     0  01:56        1.80
  WS02004139           JUNCTION     0.60     0.65     5.56     0  07:50        0.65
  WSC                  OUTFALL      0.30     0.41     1.08     0  02:03        0.41
  3                    OUTFALL      0.07     0.20     6.20     0  07:40        0.20
  4                    OUTFALL      0.02     0.14     7.14     0  01:56        0.14
  5                    OUTFALL      0.00     0.00     5.00     0  00:00        0.00
  JK-storage           STORAGE      5.14     5.80     6.60     0  01:57        5.80
  CC-storage           STORAGE      1.17     1.40     8.40     0  03:06        1.40
  XR-storage           STORAGE      7.53     7.72     5.72     0  01:50        7.72
  
  
  *******************
  Node Inflow Summary
  *******************
  
  -------------------------------------------------------------------------------------------------
                                  Maximum  Maximum                  Lateral       Total        Flow
                                  Lateral    Total  Time of Max      Inflow      Inflow     Balance
                                   Inflow   Inflow   Occurrence      Volume      Volume       Error
  Node                 Type           LPS      LPS  days hr:min    10^6 ltr    10^6 ltr     Percent
  -------------------------------------------------------------------------------------------------
  WS02001211           JUNCTION      7.35   293.32     0  04:33       0.207        6.47       0.583
  WS02001212           JUNCTION      0.00   294.09     0  04:33           0        6.43       0.313
  WS02001213           JUNCTION      0.00   294.82     0  04:33           0        6.41       0.387
  WS02003069           JUNCTION      0.32  1018.14     0  02:01     0.00902        15.2       0.223
  WS02003072           JUNCTION      0.00  1018.12     0  02:02           0        15.1       0.265
  WS02003073           JUNCTION      1.82  1019.98     0  02:02      0.0514        15.1       0.303
  WS02003060           JUNCTION     16.53  1017.80     0  02:01       0.466        15.2       0.209
  WS02003066           JUNCTION      0.00   811.35     0  01:58           0        8.37       0.060
  WS02003059           JUNCTION      0.00   296.78     0  05:21           0        6.39       0.634
  WS02003067           JUNCTION      0.00   811.31     0  01:57           0        8.38       0.121
  WS02004401           JUNCTION      0.00   812.04     0  01:56           0        8.64       0.270
  WS02004402           JUNCTION      0.00   812.05     0  01:56           0        8.61       0.252
  WS02004403           JUNCTION      0.00   812.05     0  01:56           0        8.59       0.227
  WS02004404           JUNCTION      0.16   812.21     0  01:56     0.00457        8.58       0.170
  WS02004406           JUNCTION      0.00   812.27     0  01:56           0        8.54       0.413
  WS02004409           JUNCTION      0.00   812.23     0  01:56           0         8.5       0.222
  WS02004410           JUNCTION      0.00   811.66     0  01:56           0        8.48       0.247
  WS02004411           JUNCTION      0.00   811.39     0  01:57           0        8.46       0.251
  WS02004412           JUNCTION      0.00   811.29     0  01:57           0        8.44       0.268
  WS02004413           JUNCTION      0.00   811.29     0  01:57           0        8.41       0.389
  WS02004405           JUNCTION      0.04   812.26     0  01:56     0.00107        8.56       0.253
  WS02006109           JUNCTION      1.23   787.32     0  01:55      0.0347        8.68       0.262
  WS02006110           JUNCTION      0.00   787.32     0  01:54           0        8.65       0.241
  WS02006111           JUNCTION      0.00   786.85     0  01:55           0        8.62       0.059
  WS02006112           JUNCTION     26.81   812.12     0  01:55      0.0948        8.71       0.354
  WS02006113           JUNCTION      0.00   787.27     0  01:55           0        8.63       0.123
  WS02006115           JUNCTION      0.00   812.09     0  01:55           0        8.68       0.259
  WS02006116           JUNCTION      0.00   812.05     0  01:56           0        8.66       0.244
  WS02006230           JUNCTION     10.28   392.82     0  05:02        0.29        5.99       0.242
  WS02006231           JUNCTION      0.00   384.42     0  05:02           0        5.71       0.211
  WS02006232           JUNCTION      0.00   384.44     0  05:02           0        5.72       0.297
  WS02006234           JUNCTION      0.00   386.44     0  05:01           0        5.73       0.156
  WS02006235           JUNCTION      0.00   386.67     0  05:01           0        5.82       0.200
  WS02006238           JUNCTION      0.00   313.62     0  07:30           0        4.71       0.178
  WS02006240           JUNCTION      0.00   328.94     0  07:30           0         4.7       0.280
  WS02006242           JUNCTION      0.00   335.76     0  07:31           0        4.71       0.332
  WS02006243           JUNCTION      0.00   340.08     0  07:31           0         4.7       0.104
  WS02006245           JUNCTION      0.00   342.38     0  07:30           0        4.71       0.201
  WS02006247           JUNCTION      0.00   345.01     0  07:30           0        4.72       0.153
  WS02006248           JUNCTION      0.00   347.61     0  07:30           0        4.72       0.101
  WS02006249           JUNCTION      0.00   442.24     0  02:50           0        5.22       0.193
  WS02006239           JUNCTION      0.00   320.44     0  07:30           0         4.7       0.235
  WS02006251           JUNCTION      0.08   442.94     0  02:50     0.00217        5.23       0.171
  WS02006252           JUNCTION      0.00   399.93     0  02:50           0        4.69       0.009
  WS02006253           JUNCTION      3.66   142.87     0  01:54      0.0117       0.548       0.677
  WS02006256           JUNCTION      0.00   600.00     0  07:40           0        4.36       0.081
  WS02004138           JUNCTION      0.00   285.00     0  04:20           0         6.3       0.074
  WS02004407           JUNCTION      0.00   812.28     0  01:56           0        8.51       0.098
  WS02006228           JUNCTION      0.00   786.15     0  01:55           0        8.66       0.178
  WS02006229           JUNCTION      0.00   786.23     0  01:54           0        8.67       0.160
  WS02006280           JUNCTION      0.00   656.04     0  01:55           0         2.7       0.002
  WS02006284           JUNCTION      0.10   655.96     0  01:55      0.0027         2.7       0.040
  WS02006287           JUNCTION      0.00   655.81     0  01:54           0         2.7       0.027
  WSF200               JUNCTION      0.00   811.32     0  01:58           0        8.37       0.059
  HS02004901           JUNCTION     32.57    32.57     0  01:50       0.114       0.115       1.559
  HS02004881           JUNCTION     13.82   139.59     0  01:54      0.0479       0.529       0.080
  HS02004876           JUNCTION     24.51   126.37     0  01:54      0.0923       0.482       0.114
  HS02004870           JUNCTION     25.44   102.13     0  01:54      0.0907        0.39       0.027
  HS02004862           JUNCTION     23.11    77.53     0  01:55       0.099       0.299       0.058
  HS02004856           JUNCTION     19.02    54.51     0  01:55      0.0682       0.202       0.718
  HS02004852           JUNCTION      0.00    36.10     0  01:55           0       0.134       0.042
  HS02004848           JUNCTION     50.49    50.49     0  01:57       0.223       0.223       0.020
  HS02004842           JUNCTION      0.00    15.55     0  02:06           0       0.102      14.562
  HS02004837           JUNCTION     49.08    62.50     0  01:55       0.337       0.426       0.190
  HS02004830           JUNCTION      0.15    62.61     0  01:55     0.00423       0.416       0.298
  HS02004824           JUNCTION     60.06   122.20     0  01:58       0.286       0.702       0.077
  HS02004817           JUNCTION      0.60   124.03     0  01:59      0.0169       0.718       2.378
  HS02004807           JUNCTION     47.25   168.28     0  01:57       0.166       0.868       0.499
  HS02004802           JUNCTION      0.00   169.25     0  01:58           0       0.865       0.462
  HS02004799           JUNCTION     37.43   414.53     0  01:52       0.135        1.57       0.167
  HS02004792           JUNCTION    160.44   377.30     0  01:52       0.598        1.44       0.028
  HS02004788           JUNCTION     53.14   218.54     0  01:52        0.24       0.839       0.046
  HS02004785           JUNCTION      0.15   165.59     0  01:52     0.00423       0.601       0.082
  HS02004777           JUNCTION      0.03   165.80     0  01:51    0.000846       0.601       0.872
  HS02004770           JUNCTION    134.74   166.64     0  01:51        0.49       0.602       0.515
  HS02004480           JUNCTION      0.00   492.23     0  01:53           0        1.85       0.065
  HS02004479           JUNCTION      0.00    78.00     0  01:53           0       0.292       0.252
  HS02004478           JUNCTION      0.00   655.76     0  01:54           0         2.7       0.013
  YS02001745           JUNCTION    386.89   386.89     0  02:16        3.55        3.55       0.314
  YS02001748           JUNCTION      0.04   396.37     0  02:16     0.00127        3.54       0.654
  YS02001751           JUNCTION      0.01   396.12     0  02:16     0.00031        3.52       0.680
  YS02001754           JUNCTION      0.26   396.24     0  02:16     0.00733         3.5       0.702
  YS02001762           JUNCTION      0.00   437.45     0  02:04           0        2.19       0.967
  YS02001765           JUNCTION      0.00   437.48     0  02:04           0        2.19       1.117
  YS02001767           JUNCTION      0.54   437.31     0  02:04      0.0151        2.21       1.634
  YS02001770           JUNCTION    491.42   589.82     0  02:47        3.94        4.52       0.698
  YS02001774           JUNCTION      0.00   589.84     0  02:47           0        2.88       0.870
  YS02001779           JUNCTION      0.01   590.15     0  02:47    0.000141        2.85       0.540
  YS02001882           JUNCTION      0.00    19.48     0  01:53           0       0.017      15.755
  YS02001884           JUNCTION      0.00    42.33     0  01:53           0      0.0522      13.807
  YS02001759           JUNCTION    476.91   872.97     0  02:04        3.62        5.19       0.440
  YS02001887           JUNCTION    605.93   606.08     0  02:15        4.13        4.16       0.213
  YS02001890           JUNCTION      0.00   606.32     0  02:15           0        4.11       0.233
  YS02001898           JUNCTION      0.00   521.52     0  01:58           0           4       0.079
  YS02001901           JUNCTION      0.00   521.43     0  01:58           0           4       0.180
  YS02001904           JUNCTION      0.00   521.45     0  01:58           0        3.99       0.165
  YS02001907           JUNCTION      0.00  1188.96     0  01:59           0        9.13       0.268
  YS02001910           JUNCTION      0.00   672.05     0  01:59           0        5.15       0.235
  YS02001915           JUNCTION    345.21   671.90     0  01:59        2.96         5.2       0.121
  YS02001918           JUNCTION      0.00   394.24     0  01:59           0        2.27       0.092
  YS02001619           JUNCTION    336.52   336.52     0  02:16        2.95        2.95       0.411
  YS02001629           JUNCTION      0.00   231.04     0  01:47           0        1.44       2.013
  YS02001641           JUNCTION      0.00   417.86     0  01:51           0        4.85       0.432
  YS02001644           JUNCTION    367.62  1382.77     0  02:47        3.42        12.1       0.214
  YS02001652           JUNCTION      0.00   476.85     0  02:16           0        3.05       0.750
  YS02001655           JUNCTION      0.15   476.50     0  02:16     0.00434        3.08       0.831
  YS02001920           JUNCTION      2.87   394.03     0  01:59      0.0809        2.25       0.143
  YS02001923           JUNCTION      0.04   313.94     0  02:00     0.00106        2.15       0.043
  YS02001926           JUNCTION      0.05   269.84     0  01:59     0.00147        2.14       0.149
  YS02001929           JUNCTION    185.81   202.95     0  01:58        2.12        2.13       0.028
  YS02001658           JUNCTION      0.00   505.12     0  02:11           0         3.1       0.777
  YS02001661           JUNCTION      0.00   772.66     0  02:05           0        3.81      -0.163
  YS02001664           JUNCTION    437.54   437.54     0  02:16         3.1        3.82       0.184
  YS02001622           JUNCTION      0.00   336.80     0  02:16           0        2.94       1.091
  YS02001633           JUNCTION    373.18   417.67     0  01:51        3.53        4.92       0.651
  YS02001649           JUNCTION      0.00   979.20     0  02:00           0        6.24       0.594
  YS02001757           JUNCTION      0.00  2139.42     0  02:03           0        10.4       0.891
  YS02001895           JUNCTION      0.00   521.19     0  01:58           0           4       0.133
  YS02001625           JUNCTION      0.00   336.58     0  02:16           0        2.91       1.366
  YS02163301           JUNCTION      0.00   226.00     0  01:48           0        1.44       1.677
  YS02163601           JUNCTION      0.11   417.87     0  01:51      0.0031        4.87       0.616
  YS02164001           JUNCTION      0.00   417.64     0  01:51           0        4.85       0.410
  YS02001647           JUNCTION      0.00   660.52     0  02:47           0        5.17       0.548
  YSB1154              JUNCTION     43.61    43.61     0  01:53       0.163       0.164       0.888
  YSB6556              JUNCTION      0.00    43.64     0  01:53           0       0.165       0.765
  YSB1174              JUNCTION     35.87    35.87     0  01:50        0.12        0.12       1.078
  YSB1171              JUNCTION      0.00    78.04     0  01:52           0       0.291       2.227
  YS02006553           JUNCTION      0.00   683.10     0  03:22           0        7.14       0.219
  YS02006561           JUNCTION      0.00  1096.33     0  01:57           0        10.9       0.006
  YS02006556           JUNCTION      0.00   683.02     0  03:22           0        7.15       0.161
  YS02006558           JUNCTION    522.52  1096.23     0  01:57        3.81        10.9       0.050
  YS02001783           JUNCTION      0.00  1078.50     0  01:57           0        10.9       0.024
  YS02001784           JUNCTION      1.06  1079.46     0  01:57      0.0299        10.9       0.037
  YS02001786           JUNCTION      0.06  1079.37     0  01:57     0.00159        10.9       0.034
  YS02001788           JUNCTION      0.07  1077.22     0  01:57       0.002        10.9       0.018
  YS02001790           JUNCTION      0.15  1047.34     0  01:57     0.00437        10.9       0.024
  YS02001791           JUNCTION      0.00  1091.80     0  01:56           0        10.9       0.007
  YS02001793           JUNCTION      0.00  1014.60     0  01:55           0        10.9       0.000
  WS02004139           JUNCTION      0.32   285.32     0  04:23     0.00905         6.3       0.610
  WSC                  OUTFALL       0.00  1020.04     0  02:03           0        15.1       0.000
  3                    OUTFALL       0.00   495.77     0  07:40           0        3.21       0.000
  4                    OUTFALL       0.00   179.78     0  01:56           0       0.486       0.000
  5                    OUTFALL       0.00     0.00     0  00:00           0           0       0.000 ltr
  JK-storage           STORAGE       0.00   997.44     0  01:57           0        11.1      -0.503
  CC-storage           STORAGE       0.00  2139.06     0  02:03           0        8.37       0.763
  XR-storage           STORAGE     844.69   844.69     0  03:01        12.1        12.7      -0.001
  
  
  **********************
  Node Surcharge Summary
  **********************
  
  Surcharging occurs when water rises above the top of the highest conduit.
  ---------------------------------------------------------------------
                                               Max. Height   Min. Depth
                                   Hours       Above Crown    Below Rim
  Node                 Type      Surcharged         Meters       Meters
  ---------------------------------------------------------------------
  WS02004401           JUNCTION        0.56          0.113        1.547
  WS02004402           JUNCTION        0.60          0.115        1.625
  WS02004403           JUNCTION        0.62          0.104        1.926
  WS02004404           JUNCTION        0.84          0.157        2.623
  WS02004406           JUNCTION        0.72          0.106        2.344
  WS02004405           JUNCTION        0.78          0.137        2.663
  WS02006109           JUNCTION        2.06          0.447        1.373
  WS02006110           JUNCTION        1.44          0.204        1.646
  WS02006112           JUNCTION        1.54          0.393        1.287
  WS02006115           JUNCTION        0.32          0.057        2.193
  WS02006116           JUNCTION        0.38          0.063        2.227
  WS02006230           JUNCTION        0.79          0.306        1.264
  WS02006231           JUNCTION        1.21          0.309        1.221
  WS02006232           JUNCTION        1.98          0.422        1.058
  WS02006234           JUNCTION        1.41          0.365        0.875
  WS02006235           JUNCTION        1.54          0.327        0.963
  WS02006238           JUNCTION        1.74          0.344        1.086
  WS02006240           JUNCTION        1.25          0.335        1.055
  WS02006242           JUNCTION        1.46          0.654        0.166
  WS02006243           JUNCTION        0.63          0.098        0.672
  WS02006245           JUNCTION        0.22          0.033        0.817
  WS02006247           JUNCTION        0.18          0.028        0.732
  WS02006239           JUNCTION        1.40          0.376        0.914
  WS02006252           JUNCTION        0.77          0.193        0.907
  WS02006228           JUNCTION        1.97          0.555        1.645
  YS02001748           JUNCTION        5.99          0.291        0.899
  YS02001751           JUNCTION        6.02          0.864        0.336
  YS02001754           JUNCTION        6.04          0.837        0.313
  YS02001762           JUNCTION        6.09          1.043        0.107
  YS02001765           JUNCTION        6.08          0.991        0.109
  YS02001767           JUNCTION        6.07          0.948        0.082
  YS02001770           JUNCTION        6.07          0.899        0.021
  YS02001774           JUNCTION        6.08          0.986        0.064
  YS02001779           JUNCTION        6.04          0.680        0.000
  YS02001882           JUNCTION        1.76          0.683        0.147
  YS02001884           JUNCTION        1.79          0.710        0.160
  YS02001759           JUNCTION        6.09          1.082        0.128
  YS02001887           JUNCTION        1.87          0.775        0.175
  YS02001890           JUNCTION        1.90          0.760        0.000
  YS02001898           JUNCTION        1.72          0.548        0.192
  YS02001901           JUNCTION        1.83          0.685        0.185
  YS02001904           JUNCTION        1.81          0.645        0.205
  YS02001907           JUNCTION        2.28          0.950        0.000
  YS02001910           JUNCTION        1.94          0.968        0.132
  YS02001915           JUNCTION        1.75          0.924        0.076
  YS02001918           JUNCTION        1.51          0.810        0.000
  YS02001619           JUNCTION        6.02          0.610        0.000
  YS02001629           JUNCTION        6.02          0.470        0.000
  YS02001641           JUNCTION        6.08          0.935        0.165
  YS02001644           JUNCTION        6.08          0.920        0.000
  YS02001652           JUNCTION        6.05          1.130        0.000
  YS02001655           JUNCTION        6.02          1.142        0.058
  YS02001920           JUNCTION        1.54          1.008        0.132
  YS02001923           JUNCTION        0.01          0.652        0.168
  YS02001926           JUNCTION        0.01          0.785        0.115
  YS02001929           JUNCTION        0.01          0.617        0.163
  YS02001658           JUNCTION        5.99          1.234        0.066
  YS02001661           JUNCTION        0.36          1.390        0.000
  YS02001622           JUNCTION        6.02          0.620        0.000
  YS02001633           JUNCTION        6.08          0.943        0.117
  YS02001649           JUNCTION        6.08          1.050        0.000
  YS02001757           JUNCTION        6.12          1.183        0.027
  YS02001895           JUNCTION        1.73          0.575        0.175
  YS02001625           JUNCTION        6.05          0.780        0.000
  YS02163301           JUNCTION        6.07          0.898        0.132
  YS02163601           JUNCTION        6.09          0.996        0.084
  YS02164001           JUNCTION        6.08          0.918        0.182
  YS02001647           JUNCTION        6.05          0.800        0.100
  YS02006553           JUNCTION        2.33          1.174        0.016
  YS02006561           JUNCTION        1.61          1.120        0.030
  YS02006556           JUNCTION        2.11          1.349        0.001
  YS02006558           JUNCTION        2.09          1.394        0.006
  YS02001783           JUNCTION        2.11          1.489        0.111
  YS02001784           JUNCTION        2.21          1.427        0.063
  YS02001786           JUNCTION        2.05          1.430        0.000
  YS02001788           JUNCTION        2.04          1.480        0.000
  YS02001790           JUNCTION        5.35          1.157        0.000
  YS02001791           JUNCTION        5.42          1.205        0.715
  YS02001793           JUNCTION        5.57          1.019        1.581
  
  
  *********************
  Node Flooding Summary
  *********************
  
  Flooding refers to all water that overflows a node, whether it ponds or not.
  --------------------------------------------------------------------------
                                                             Total   Maximum
                                 Maximum   Time of Max       Flood    Ponded
                        Hours       Rate    Occurrence      Volume     Depth
  Node                 Flooded       LPS   days hr:min    10^6 ltr    Meters
  --------------------------------------------------------------------------
  YS02001779              3.37    590.02      0  02:47       2.833     0.000
  YS02001890              0.55     90.26      0  02:15       0.100     0.000
  YS02001907              1.38    670.01      0  01:59       1.976     0.000
  YS02001918              0.01     95.66      0  01:57       0.000     0.000
  YS02001619              0.01     71.87      0  01:48       0.000     0.000
  YS02001629              0.01    182.08      0  01:47       0.001     0.000
  YS02001644              5.59   1382.54      0  02:46      10.723     0.000
  YS02001652              0.01      6.06      0  02:09       0.000     0.000
  YS02001661              0.01    125.36      0  02:11       0.000     0.000
  YS02001622              0.01     11.42      0  01:48       0.000     0.000
  YS02001649              0.10     36.33      0  02:18       0.004     0.000
  YS02001625              2.01    326.45      0  02:16       1.447     0.000
  YS02001786              0.01     21.85      0  01:57       0.000     0.000
  YS02001788              0.01    130.13      0  01:57       0.000     0.000
  YS02001790              0.01    146.91      0  01:57       0.000     0.000
  JK-storage              5.13    697.09      0  01:57       6.804     0.000
  XR-storage              4.79    822.44      0  02:50       5.510     0.000
  
  
  **********************
  Storage Volume Summary
  **********************
  
  --------------------------------------------------------------------------------------------------
                         Average     Avg  Evap Exfil       Maximum     Max    Time of Max    Maximum
                          Volume    Pcnt  Pcnt  Pcnt        Volume    Pcnt     Occurrence    Outflow
  Storage Unit           1000 m3    Full  Loss  Loss       1000 m3    Full    days hr:min        LPS
  --------------------------------------------------------------------------------------------------
  JK-storage               0.258      89     0     0         0.291     100       0  01:57     600.00
  CC-storage               3.268      21     0     0         3.909      25       0  03:06     399.93
  XR-storage               0.904      98     0     0         0.926     100       0  01:50     285.00
  
  
  ***********************
  Outfall Loading Summary
  ***********************
  
  -----------------------------------------------------------
                         Flow       Avg       Max       Total
                         Freq      Flow      Flow      Volume
  Outfall Node           Pcnt       LPS       LPS    10^6 ltr
  -----------------------------------------------------------
  WSC                   99.99    601.53   1020.04      15.087
  3                     57.38    250.86    495.77       3.215
  4                     29.30     74.32    179.78       0.486
  5                      0.00      0.00      0.00       0.000
  -----------------------------------------------------------
  System                46.67    926.71   1517.29      18.788
  
  
  ********************
  Link Flow Summary
  ********************
  
  -----------------------------------------------------------------------------
                                 Maximum  Time of Max   Maximum    Max/    Max/
                                  |Flow|   Occurrence   |Veloc|    Full    Full
  Link                 Type          LPS  days hr:min     m/sec    Flow   Depth
  -----------------------------------------------------------------------------
  WS02003066WSF200     CONDUIT    811.32     0  01:58      3.01    0.14    0.29
  WS02006287WS02006284 CONDUIT    655.86     0  01:55      2.36    0.30    0.38
  WS02006284WS02006280 CONDUIT    656.04     0  01:55      2.59    0.27    0.36
  WS02006280WS02006229 CONDUIT    656.05     0  01:55      4.21    0.14    0.25
  WS02006229WS02006228 CONDUIT    786.15     0  01:55      1.56    2.60    1.00
  WS02006256WS02006235 CONDUIT    166.25     0  00:01      2.58    1.76    1.00
  WS02006253WS02006251 CONDUIT    142.89     0  01:55      0.59    0.43    0.97
  WS02006252WS02006251 CONDUIT    400.01     0  05:00      3.18    1.47    1.00
  WS02006251WS02006249 CONDUIT    442.24     0  02:50      1.19    1.28    0.93
  WS02006249WS02006248 CONDUIT    347.61     0  07:30      1.12    1.90    0.90
  WS02006248WS02006247 CONDUIT    345.01     0  07:30      1.09    0.75    0.96
  WS02006247WS02006245 CONDUIT    342.38     0  07:30      1.05    2.71    1.00
  WS02006245WS02006243 CONDUIT    340.08     0  07:31      1.10    1.01    1.00
  WS02006243WS02006242 CONDUIT    335.76     0  07:31      0.98    0.72    1.00
  WS02006242WS02006240 CONDUIT    328.94     0  07:30      0.93    1.31    1.00
  WS02006240WS02006239 CONDUIT    320.44     0  07:30      0.98    1.01    1.00
  WS02006239WS02006238 CONDUIT    313.62     0  07:30      0.91    1.00    1.00
  WS02006238WS02006235 CONDUIT    309.26     0  07:30      1.25    0.69    1.00
  WS02006235WS02006234 CONDUIT    386.44     0  05:01      1.04    4.08    1.00
  WS02006234WS02006232 CONDUIT    384.44     0  05:02      1.13    0.78    1.00
  WS02006232WS02006231 CONDUIT    384.42     0  05:02      1.05    0.81    1.00
  WS02006231WS02006230 CONDUIT    382.55     0  05:02      1.35    5.80    1.00
  WS02006230WS02006229 CONDUIT    392.07     0  05:03      1.02    8.73    1.00
  WS02006228WS02006109 CONDUIT    786.09     0  01:55      1.56    3.43    1.00
  WS02006116WS02004401 CONDUIT    812.04     0  01:56      1.03    1.12    1.00
  WS02006115WS02006116 CONDUIT    812.05     0  01:56      1.03    1.04    1.00
  WS02006113WS02006111 CONDUIT    786.85     0  01:55      2.65    0.94    0.77
  WS02006112WS02006115 CONDUIT    812.09     0  01:55      1.03    0.48    1.00
  WS02006111WS02006112 CONDUIT    787.27     0  01:56      1.78    0.37    0.88
  WS02006110WS02006113 CONDUIT    787.27     0  01:55      1.69    0.72    0.88
  WS02006109WS02006110 CONDUIT    787.32     0  01:54      1.57    1.51    1.00
  WS02004411WS02004412 CONDUIT    811.29     0  01:57      1.15    1.15    0.84
  WS02004401WS02004402 CONDUIT    812.05     0  01:56      1.03    0.97    1.00
  WS02004413WS02003067 CONDUIT    811.31     0  01:57      1.40    0.35    0.69
  WS02004412WS02004413 CONDUIT    811.29     0  01:57      1.08    0.54    0.91
  WS02004410WS02004411 CONDUIT    811.39     0  01:57      1.14    1.11    0.85
  WS02004409WS02004410 CONDUIT    811.66     0  01:56      1.13    1.05    0.86
  WS02004407WS02004409 CONDUIT    812.23     0  01:56      1.66    0.29    0.61
  WS02004406WS02004407 CONDUIT    812.28     0  01:56      1.42    0.36    0.68
  WS02004405WS02004406 CONDUIT    812.27     0  01:56      1.03    1.60    1.00
  WS02004404WS02004405 CONDUIT    812.22     0  01:56      1.03    7.96    1.00
  WS02004403WS02004404 CONDUIT    812.05     0  01:56      1.03    0.59    1.00
  WS02004402WS02004403 CONDUIT    812.05     0  01:56      1.03    1.17    1.00
  WS02004139WS02001211 CONDUIT    285.97     0  04:33      0.69    0.36    0.52
  WS02004138WS02004139 CONDUIT    285.00     0  04:23      2.94    0.06    0.38
  WS02003067WS02003066 CONDUIT    811.35     0  01:58      1.52    0.26    0.48
  WS02001213WS02003059 CONDUIT    296.78     0  05:21      0.65    0.49    0.75
  WS02001212WS02001213 CONDUIT    294.82     0  04:33      1.16    0.45    0.42
  WS02001211WS02001212 CONDUIT    294.09     0  04:33      0.66    0.22    0.57
  WS02003072WS02003073 CONDUIT   1018.16     0  02:02      1.78    2.20    0.51
  WS02003069WS02003072 CONDUIT   1018.12     0  02:02      1.66    0.49    0.53
  WS02003060WS02003069 CONDUIT   1017.82     0  02:01      1.90    0.40    0.48
  WS02003059WS02003060 CONDUIT    300.02     0  05:21      0.69    0.20    0.67
  HS02004901HS02004770 CONDUIT     31.96     0  01:52      0.09    0.12    0.51
  HS02004876HS02004881 CONDUIT    126.38     0  01:55      1.20    1.34    0.15
  HS02004870HS02004876 CONDUIT    102.10     0  01:55      0.82    0.07    0.18
  HS02004842HS02004848 CONDUIT     15.55     0  02:06      0.07    0.01    0.33
  HS02004837HS02004842 CONDUIT     15.96     0  02:07      0.41    0.01    0.35
  HS02004830HS02004837 CONDUIT     62.46     0  01:55      0.66    0.06    0.14
  HS02004824HS02004830 CONDUIT     62.57     0  01:56      0.62    0.08    0.16
  HS02004817HS02004824 CONDUIT    123.43     0  01:59      0.31    0.06    0.58
  HS02004770HS02004777 CONDUIT    165.77     0  01:51      0.46    0.30    0.52
  HS02004799HS02004480 CONDUIT    414.30     0  01:53      1.02    0.52    0.58
  HS02004792HS02004799 CONDUIT    377.20     0  01:52      1.15    0.23    0.47
  HS02004788HS02004792 CONDUIT    218.44     0  01:53      1.24    0.14    0.25
  HS02004785HS02004788 CONDUIT    165.54     0  01:53      0.86    1.25    0.27
  HS02004777HS02004785 CONDUIT    165.44     0  01:52      0.54    0.20    0.44
  HS02004480HS02004478 CONDUIT    492.14     0  01:53      1.52    2.07    0.46
  HS02004479HS02004480 CONDUIT     78.31     0  01:54      0.27    0.08    0.55
  HS02004862HS02004870 CONDUIT     77.52     0  01:55      0.79    0.08    0.14
  HS02004848HS02004852 CONDUIT     36.10     0  01:55      0.52    0.04    0.10
  HS02004856HS02004862 CONDUIT     54.46     0  01:55      0.59    0.05    0.13
  HS02004852HS02004856 CONDUIT     36.15     0  01:56      0.33    0.04    0.16
  HS02004802HS02004478 CONDUIT    170.22     0  01:58      0.53    0.15    0.47
  HS02004478WS02006287 CONDUIT    655.81     0  01:54      2.08    0.18    0.35
  HS02004817HS02004807 CONDUIT    125.36     0  01:59      0.24    0.07    0.75
  HS02004807HS02004802 CONDUIT    169.25     0  01:58      0.47    0.32    0.53
  YS02001759YS02001757 CONDUIT    873.02     0  02:04      1.11    0.62    1.00
  YS02001762YS02001759 CONDUIT    437.37     0  02:04      0.56    0.50    1.00
  YS02001765YS02001762 CONDUIT    437.45     0  02:04      0.56    0.41    1.00
  YS02001770YS02001767 CONDUIT    436.78     0  02:04      0.56    1.73    1.00
  YS02001774YS02001770 CONDUIT    589.84     0  02:47      0.75    0.38    1.00
  YS02001779YS02001774 CONDUIT    590.15     0  02:47      0.75    0.30    1.00
  YS02001649YS02001757 CONDUIT    979.47     0  02:00      1.25    0.59    1.00
  YS02001767YS02001765 CONDUIT    437.48     0  02:04      0.56    0.55    1.00
  YS02006561YS02001783 CONDUIT   1078.50     0  01:57      2.26    0.56    1.00
  YS02001783YS02001784 CONDUIT   1078.40     0  01:57      2.15    1.49    1.00
  YS02001784YS02001785 CONDUIT   1079.31     0  01:57      2.15    2.51    1.00
  YS02001788YS02001790 CONDUIT   1047.18     0  01:57      2.56    0.77    1.00
  YS02001790YS02001791 CONDUIT   1091.80     0  01:56      3.22    1.19    1.00
  YS02001791YS02001793 CONDUIT   1014.60     0  01:55      6.15    0.44    1.00
  YS02001910YS02001907 CONDUIT    671.90     0  01:59      0.86    0.38    1.00
  YS02001786YS02001788 CONDUIT   1077.15     0  01:57      2.35    2.08    1.00
  YS02001915YS02001910 CONDUIT    672.05     0  01:59      0.86    0.33    1.00
  YS02001918YS02001915 CONDUIT    394.14     0  01:59      0.50    0.22    1.00
  YS02001923YS02001920 CONDUIT    391.16     0  01:59      0.78    0.18    1.00
  YS02001926YS02001923 CONDUIT    313.90     0  02:00      0.87    0.45    1.00
  YS02001929YS02001926 CONDUIT    269.79     0  01:59      0.93    0.13    1.00
  YS02001920YS02001918 CONDUIT    394.24     0  01:59      0.75    0.38    1.00
  YS02001629YS02163301 CONDUIT    226.00     0  01:48      0.29    0.28    1.00
  YS02001619YS02001622 CONDUIT    336.80     0  02:16      0.76    0.50    1.00
  YS02001622YS02001625 CONDUIT    336.58     0  02:16      0.43    0.18    1.00
  YS02001625YS02001629 CONDUIT    210.32     0  01:47      0.31    0.10    1.00
  YS02163301YS02001633 CONDUIT    226.40     0  01:48      0.29    0.21    1.00
  YS02163601YS02164001 CONDUIT    417.64     0  01:51      0.53    0.37    1.00
  YS02164001YS02001641 CONDUIT    417.86     0  01:51      0.53    0.57    1.00
  YS02001641YS02001644 CONDUIT    417.76     0  01:51      0.53    1.35    1.00
  YS02001647YS02001649 CONDUIT    660.52     0  02:47      0.84    0.35    1.00
  YS02006553YS02006556 CONDUIT    683.02     0  03:22      0.87    0.58    1.00
  YS02006556YS02006558 CONDUIT    683.19     0  03:21      0.87    0.54    1.00
  YSB6556YSB1171       CONDUIT     43.98     0  01:54      0.13    0.05    0.82
  YS02001907YS02006553 CONDUIT    683.10     0  03:22      0.76    0.80    1.00
  YS02006558YS02006561 CONDUIT   1096.33     0  01:57      3.88    2.42    1.00
  YS02001633YS02163601 CONDUIT    417.76     0  01:51      0.53    0.44    1.00
  YS02001644YS02001647 CONDUIT    660.61     0  02:47      0.84    0.39    1.00
  YS02001745YS02001748 CONDUIT    396.33     0  02:16      1.73    0.15    0.96
  YS02001748YS02001751 CONDUIT    396.11     0  02:16      1.26    0.20    1.00
  YS02001751YS02001754 CONDUIT    395.98     0  02:16      1.03    0.19    1.00
  YS02001754YS02001757 CONDUIT    396.18     0  02:16      0.50    0.16    1.00
  YS02001882YS02001884 CONDUIT     19.48     0  01:53      0.12    0.02    1.00
  YS02001884YS02001887 CONDUIT     42.33     0  01:53      0.09    0.06    1.00
  YS02001890YS02001895 CONDUIT    521.19     0  01:58      0.66    0.24    1.00
  YS02001895YS02001898 CONDUIT    521.52     0  01:58      0.66    0.90    1.00
  YS02001898YS02001901 CONDUIT    521.43     0  01:58      0.66    0.34    1.00
  YS02001901YS02001904 CONDUIT    521.45     0  01:58      0.66    0.81    1.00
  YS02001904YS02001907 CONDUIT    521.24     0  01:58      0.66    0.18    1.00
  YS02001887YS02001890 CONDUIT    606.32     0  02:15      0.77    1.04    1.00
  YS02001652YS02001649 CONDUIT    477.25     0  02:16      0.61    0.24    1.00
  YS02001655YS02001652 CONDUIT    476.85     0  02:16      1.09    0.23    1.00
  YS02001658YS02001655 CONDUIT    476.34     0  02:16      1.45    0.20    1.00
  YS02001661YS02001658 CONDUIT    505.12     0  02:11      1.85    0.20    1.00
  YS02001664YS02001661 CONDUIT    772.66     0  02:05      1.75    0.24    0.76
  YSB1154YSB6556       CONDUIT     43.64     0  01:53      0.17    0.08    0.72
  YSB1174YSB1171       CONDUIT     35.15     0  01:50      0.10    0.05    0.83
  YSB1171HS02004479    CONDUIT     78.00     0  01:53      0.54    0.05    0.67
  HS02004881HS02006253 CONDUIT    139.58     0  01:55      2.11    0.03    0.27
  YS02001793JiankangQianchi CONDUIT    997.44     0  01:57     13.01    0.08    1.00
  YS02001757CaochengTiaoxuchi CONDUIT   2139.06     0  02:03      3.75    0.94    1.00
  WSF200WS02003060     CONDUIT    810.96     0  01:58      2.06    0.18    0.39
  1                    CONDUIT   1020.04     0  02:03      3.34    0.36    0.41
  2                    CONDUIT    179.78     0  01:56      5.68    0.43    0.46
  3                    CONDUIT    495.77     0  07:40      9.78    0.79    0.68
  4                    CONDUIT      0.00     0  00:00      0.00    0.00    0.00
  CC-Pump-1            PUMP       200.00     0  04:00              1.00
  CC-Pump-2            PUMP       200.00     0  01:40              1.00
  JK-Pump-1            PUMP       300.00     0  01:41              1.00
  JK-Pump-2            PUMP       300.00     0  00:00              1.00
  XR-Pump-1            PUMP        95.00     0  00:00              1.00
  XR-Pump-2            PUMP        95.00     0  07:40              1.00
  XR-Pump-3            PUMP        95.00     0  00:00              1.00
  XR-Pump-4            PUMP        95.00     0  04:00              1.00
  
  
  ***************************
  Flow Classification Summary
  ***************************
  
  -------------------------------------------------------------------------------------
                      Adjusted    ---------- Fraction of Time in Flow Class ---------- 
                       /Actual         Up    Down  Sub   Sup   Up    Down  Norm  Inlet 
  Conduit               Length    Dry  Dry   Dry   Crit  Crit  Crit  Crit  Ltd   Ctrl  
  -------------------------------------------------------------------------------------
  WS02003066WSF200        1.00   0.06  0.00  0.00  0.00  0.94  0.00  0.00  0.58  0.00
  WS02006287WS02006284    1.00   0.04  0.01  0.00  0.58  0.38  0.00  0.00  0.65  0.00
  WS02006284WS02006280    1.00   0.04  0.00  0.00  0.00  0.00  0.00  0.96  0.00  0.00
  WS02006280WS02006229    1.00   0.04  0.00  0.00  0.00  0.00  0.00  0.96  0.00  0.00
  WS02006229WS02006228    1.00   0.00  0.00  0.00  0.99  0.00  0.00  0.01  0.00  0.00
  WS02006256WS02006235    1.00   0.00  0.00  0.00  1.00  0.00  0.00  0.00  0.00  0.00
  WS02006253WS02006251    1.00   0.03  0.01  0.00  0.96  0.00  0.00  0.00  0.00  0.00
  WS02006252WS02006251    1.00   0.06  0.00  0.00  0.00  0.00  0.94  0.00  0.00  0.00
  WS02006251WS02006249    1.00   0.00  0.00  0.00  1.00  0.00  0.00  0.00  0.18  0.00
  WS02006249WS02006248    1.00   0.00  0.02  0.00  0.94  0.00  0.04  0.00  0.00  0.00
  WS02006248WS02006247    1.00   0.02  0.00  0.00  0.98  0.00  0.00  0.00  0.06  0.00
  WS02006247WS02006245    1.00   0.02  0.00  0.00  0.98  0.00  0.00  0.00  0.00  0.00
  WS02006245WS02006243    1.00   0.01  0.00  0.00  0.96  0.00  0.00  0.03  0.01  0.00
  WS02006243WS02006242    1.00   0.01  0.00  0.00  0.99  0.00  0.00  0.00  0.16  0.00
  WS02006242WS02006240    1.00   0.00  0.00  0.00  1.00  0.00  0.00  0.00  0.00  0.00
  WS02006240WS02006239    1.00   0.00  0.00  0.00  0.97  0.00  0.00  0.03  0.01  0.00
  WS02006239WS02006238    1.00   0.00  0.00  0.00  1.00  0.00  0.00  0.00  0.00  0.00
  WS02006238WS02006235    1.00   0.00  0.00  0.00  1.00  0.00  0.00  0.00  0.00  0.00
  WS02006235WS02006234    1.00   0.00  0.00  0.00  0.97  0.00  0.03  0.00  0.00  0.00
  WS02006234WS02006232    1.00   0.00  0.00  0.00  1.00  0.00  0.00  0.00  0.08  0.00
  WS02006232WS02006231    1.00   0.00  0.00  0.00  0.99  0.00  0.00  0.00  0.00  0.00
  WS02006231WS02006230    1.00   0.00  0.00  0.00  0.47  0.00  0.53  0.00  0.00  0.00
  WS02006230WS02006229    1.00   0.00  0.00  0.00  0.99  0.00  0.00  0.01  0.01  0.00
  WS02006228WS02006109    1.00   0.00  0.00  0.00  1.00  0.00  0.00  0.00  0.00  0.00
  WS02006116WS02004401    1.00   0.02  0.00  0.00  0.98  0.00  0.00  0.00  0.00  0.00
  WS02006115WS02006116    1.00   0.02  0.00  0.00  0.97  0.00  0.00  0.01  0.00  0.00
  WS02006113WS02006111    1.00   0.02  0.00  0.00  0.06  0.92  0.00  0.00  0.11  0.00
  WS02006112WS02006115    1.00   0.02  0.00  0.00  0.98  0.00  0.00  0.00  0.00  0.00
  WS02006111WS02006112    1.00   0.02  0.00  0.00  0.98  0.00  0.00  0.00  0.88  0.00
  WS02006110WS02006113    1.00   0.01  0.01  0.00  0.98  0.00  0.00  0.00  0.00  0.00
  WS02006109WS02006110    1.00   0.00  0.01  0.00  0.98  0.00  0.01  0.00  0.00  0.00
  WS02004411WS02004412    1.00   0.04  0.00  0.00  0.96  0.00  0.00  0.00  0.00  0.00
  WS02004401WS02004402    1.00   0.02  0.00  0.00  0.98  0.00  0.00  0.00  0.00  0.00
  WS02004413WS02003067    1.00   0.04  0.01  0.00  0.00  0.00  0.95  0.00  0.00  0.00
  WS02004412WS02004413    1.00   0.04  0.00  0.00  0.96  0.00  0.00  0.00  0.03  0.00
  WS02004410WS02004411    1.00   0.03  0.00  0.00  0.97  0.00  0.00  0.00  0.04  0.00
  WS02004409WS02004410    1.00   0.03  0.00  0.00  0.97  0.00  0.00  0.00  0.02  0.00
  WS02004407WS02004409    1.00   0.03  0.00  0.00  0.96  0.00  0.00  0.00  0.89  0.00
  WS02004406WS02004407    1.00   0.00  0.03  0.00  0.97  0.00  0.00  0.00  0.00  0.00
  WS02004405WS02004406    1.00   0.00  0.00  0.00  1.00  0.00  0.00  0.00  0.01  0.00
  WS02004404WS02004405    1.00   0.00  0.00  0.00  1.00  0.00  0.00  0.00  0.00  0.00
  WS02004403WS02004404    1.00   0.00  0.02  0.00  0.98  0.00  0.00  0.00  0.01  0.00
  WS02004402WS02004403    1.00   0.02  0.00  0.00  0.98  0.00  0.00  0.00  0.00  0.00
  WS02004139WS02001211    1.00   0.00  0.00  0.00  1.00  0.00  0.00  0.00  0.00  0.00
  WS02004138WS02004139    1.00   0.00  0.00  0.00  0.99  0.01  0.00  0.00  1.00  0.00
  WS02003067WS02003066    1.00   0.05  0.01  0.00  0.94  0.00  0.00  0.00  0.00  0.00
  WS02001213WS02003059    1.00   0.00  0.00  0.00  0.99  0.00  0.00  0.00  0.00  0.00
  WS02001212WS02001213    1.00   0.00  0.00  0.00  0.91  0.00  0.09  0.00  0.00  0.00
  WS02001211WS02001212    1.00   0.00  0.00  0.00  1.00  0.00  0.00  0.00  0.00  0.00
  WS02003072WS02003073    1.00   0.00  0.00  0.00  0.00  0.00  0.00  1.00  0.00  0.00
  WS02003069WS02003072    1.00   0.00  0.00  0.00  0.99  0.01  0.00  0.00  0.19  0.00
  WS02003060WS02003069    1.00   0.00  0.00  0.00  0.98  0.02  0.00  0.00  0.18  0.00
  WS02003059WS02003060    1.00   0.00  0.00  0.00  1.00  0.00  0.00  0.00  0.01  0.00
  HS02004901HS02004770    1.00   0.04  0.00  0.00  0.96  0.00  0.00  0.00  0.00  0.00
  HS02004876HS02004881    1.00   0.02  0.00  0.00  0.84  0.14  0.00  0.00  0.00  0.00
  HS02004870HS02004876    1.00   0.01  0.00  0.00  0.99  0.00  0.00  0.00  0.95  0.00
  HS02004842HS02004848    1.00   0.00  0.04  0.00  0.96  0.00  0.00  0.00  0.57  0.00
  HS02004837HS02004842    1.00   0.00  0.00  0.00  0.99  0.01  0.00  0.00  0.11  0.00
  HS02004830HS02004837    1.00   0.00  0.00  0.00  1.00  0.00  0.00  0.00  0.99  0.00
  HS02004824HS02004830    1.00   0.00  0.00  0.00  1.00  0.00  0.00  0.00  0.03  0.00
  HS02004817HS02004824    1.00   0.00  0.00  0.00  1.00  0.00  0.00  0.00  0.94  0.00
  HS02004770HS02004777    1.00   0.00  0.04  0.00  0.96  0.00  0.00  0.00  0.03  0.00
  HS02004799HS02004480    1.00   0.00  0.02  0.00  0.96  0.00  0.02  0.00  0.00  0.00
  HS02004792HS02004799    1.00   0.00  0.00  0.00  0.99  0.01  0.00  0.00  0.98  0.00
  HS02004788HS02004792    1.00   0.00  0.00  0.00  0.99  0.01  0.00  0.00  0.98  0.00
  HS02004785HS02004788    1.00   0.00  0.00  0.00  1.00  0.00  0.00  0.00  0.00  0.00
  HS02004777HS02004785    1.00   0.00  0.00  0.00  1.00  0.00  0.00  0.00  0.13  0.00
  HS02004480HS02004478    1.00   0.04  0.00  0.00  0.64  0.00  0.00  0.32  0.00  0.00
  HS02004479HS02004480    1.00   0.02  0.00  0.00  0.98  0.00  0.00  0.00  0.12  0.00
  HS02004862HS02004870    1.00   0.00  0.00  0.00  1.00  0.00  0.00  0.00  0.04  0.00
  HS02004848HS02004852    1.00   0.04  0.00  0.00  0.96  0.00  0.00  0.00  0.78  0.00
  HS02004856HS02004862    1.00   0.00  0.05  0.00  0.95  0.00  0.00  0.00  0.82  0.00
  HS02004852HS02004856    1.00   0.04  0.00  0.00  0.96  0.00  0.00  0.00  0.77  0.00
  HS02004802HS02004478    1.00   0.04  0.00  0.00  0.96  0.00  0.00  0.00  0.03  0.00
  HS02004478WS02006287    1.00   0.04  0.00  0.00  0.70  0.26  0.00  0.00  0.62  0.00
  HS02004817HS02004807    1.00   0.00  0.04  0.00  0.96  0.00  0.00  0.00  0.01  0.00
  HS02004807HS02004802    1.00   0.04  0.00  0.00  0.96  0.00  0.00  0.00  0.00  0.00
  YS02001759YS02001757    1.00   0.00  0.00  0.00  1.00  0.00  0.00  0.00  0.16  0.00
  YS02001762YS02001759    1.00   0.00  0.00  0.00  1.00  0.00  0.00  0.00  0.03  0.00
  YS02001765YS02001762    1.00   0.00  0.00  0.00  1.00  0.00  0.00  0.00  0.14  0.00
  YS02001770YS02001767    1.00   0.00  0.00  0.00  1.00  0.00  0.00  0.00  0.00  0.00
  YS02001774YS02001770    1.00   0.00  0.04  0.00  0.96  0.00  0.00  0.00  0.03  0.00
  YS02001779YS02001774    1.00   0.00  0.00  0.00  1.00  0.00  0.00  0.00  0.18  0.00
  YS02001649YS02001757    1.00   0.00  0.00  0.00  1.00  0.00  0.00  0.00  0.16  0.00
  YS02001767YS02001765    1.00   0.00  0.00  0.00  1.00  0.00  0.00  0.00  0.00  0.00
  YS02006561YS02001783    1.00   0.05  0.00  0.00  0.83  0.12  0.00  0.00  0.51  0.00
  YS02001783YS02001784    1.00   0.00  0.05  0.00  0.95  0.00  0.00  0.00  0.00  0.00
  YS02001784YS02001785    1.00   0.00  0.00  0.00  1.00  0.00  0.00  0.00  0.17  0.00
  YS02001788YS02001790    1.00   0.00  0.00  0.00  0.88  0.12  0.00  0.00  0.23  0.00
  YS02001790YS02001791    1.00   0.00  0.00  0.00  0.85  0.15  0.00  0.00  0.07  0.00
  YS02001791YS02001793    1.00   0.00  0.00  0.00  0.87  0.13  0.00  0.00  0.02  0.00
  YS02001910YS02001907    1.00   0.00  0.00  0.00  0.98  0.00  0.00  0.02  0.12  0.00
  YS02001786YS02001788    1.00   0.00  0.00  0.00  0.88  0.12  0.00  0.00  0.00  0.00
  YS02001915YS02001910    1.00   0.00  0.00  0.00  0.99  0.01  0.00  0.00  0.16  0.00
  YS02001918YS02001915    1.00   0.00  0.01  0.00  0.98  0.01  0.00  0.00  0.52  0.00
  YS02001923YS02001920    1.00   0.00  0.00  0.00  1.00  0.00  0.00  0.00  0.74  0.00
  YS02001926YS02001923    1.00   0.00  0.03  0.00  0.28  0.00  0.69  0.00  0.00  0.00
  YS02001929YS02001926    1.00   0.00  0.04  0.00  0.96  0.00  0.00  0.00  0.66  0.00
  YS02001920YS02001918    1.00   0.00  0.01  0.00  0.99  0.00  0.00  0.00  0.00  0.00
  YS02001629YS02163301    1.00   0.04  0.00  0.00  0.95  0.00  0.00  0.00  0.00  0.00
  YS02001619YS02001622    1.00   0.04  0.00  0.00  0.96  0.00  0.00  0.00  0.00  0.00
  YS02001622YS02001625    1.00   0.04  0.00  0.00  0.96  0.00  0.00  0.00  0.05  0.00
  YS02001625YS02001629    1.00   0.04  0.01  0.00  0.94  0.00  0.01  0.00  0.00  0.00
  YS02163301YS02001633    1.00   0.00  0.04  0.00  0.96  0.00  0.00  0.00  0.00  0.00
  YS02163601YS02164001    1.00   0.00  0.03  0.00  0.97  0.00  0.00  0.00  0.00  0.00
  YS02164001YS02001641    1.00   0.01  0.02  0.00  0.97  0.00  0.00  0.00  0.06  0.00
  YS02001641YS02001644    1.00   0.00  0.01  0.00  0.99  0.00  0.00  0.00  0.00  0.00
  YS02001647YS02001649    1.00   0.00  0.05  0.00  0.95  0.00  0.00  0.00  0.01  0.00
  YS02006553YS02006556    1.00   0.01  0.00  0.00  0.99  0.00  0.00  0.00  0.03  0.00
  YS02006556YS02006558    1.00   0.00  0.00  0.00  1.00  0.00  0.00  0.00  0.00  0.00
  YSB6556YSB1171          1.00   0.03  0.01  0.00  0.96  0.00  0.00  0.00  0.00  0.00
  YS02001907YS02006553    1.00   0.00  0.02  0.00  0.98  0.00  0.00  0.00  0.00  0.00
  YS02006558YS02006561    1.00   0.05  0.00  0.00  0.30  0.65  0.00  0.00  0.42  0.00
  YS02001633YS02163601    1.00   0.00  0.01  0.00  0.99  0.00  0.00  0.00  0.15  0.00
  YS02001644YS02001647    1.00   0.00  0.05  0.00  0.95  0.00  0.00  0.00  0.00  0.00
  YS02001745YS02001748    1.00   0.00  0.00  0.00  0.92  0.00  0.00  0.07  0.01  0.00
  YS02001748YS02001751    1.00   0.00  0.00  0.00  0.98  0.02  0.00  0.00  0.14  0.00
  YS02001751YS02001754    1.00   0.00  0.00  0.00  0.95  0.00  0.00  0.05  0.01  0.00
  YS02001754YS02001757    1.00   0.00  0.00  0.00  0.99  0.01  0.00  0.00  0.18  0.00
  YS02001882YS02001884    1.00   0.04  0.00  0.00  0.96  0.00  0.00  0.00  0.00  0.00
  YS02001884YS02001887    1.00   0.03  0.01  0.00  0.96  0.00  0.00  0.00  0.00  0.00
  YS02001890YS02001895    1.00   0.00  0.04  0.00  0.96  0.00  0.00  0.00  0.00  0.00
  YS02001895YS02001898    1.00   0.04  0.00  0.00  0.95  0.00  0.00  0.00  0.00  0.00
  YS02001898YS02001901    1.00   0.05  0.00  0.00  0.95  0.00  0.00  0.00  0.01  0.00
  YS02001901YS02001904    1.00   0.05  0.00  0.00  0.95  0.00  0.00  0.00  0.00  0.00
  YS02001904YS02001907    1.00   0.00  0.04  0.00  0.95  0.00  0.00  0.00  0.00  0.00
  YS02001887YS02001890    1.00   0.00  0.00  0.00  0.98  0.00  0.02  0.00  0.00  0.00
  YS02001652YS02001649    1.00   0.00  0.00  0.00  1.00  0.00  0.00  0.00  0.16  0.00
  YS02001655YS02001652    1.00   0.00  0.00  0.00  0.95  0.00  0.00  0.05  0.01  0.00
  YS02001658YS02001655    1.00   0.00  0.04  0.00  0.94  0.02  0.00  0.00  0.02  0.00
  YS02001661YS02001658    1.00   0.04  0.00  0.00  0.92  0.04  0.00  0.00  0.00  0.00
  YS02001664YS02001661    1.00   0.04  0.00  0.00  0.93  0.03  0.00  0.00  0.10  0.00
  YSB1154YSB6556          1.00   0.04  0.00  0.00  0.96  0.00  0.00  0.00  0.02  0.00
  YSB1174YSB1171          1.00   0.03  0.01  0.00  0.97  0.00  0.00  0.00  0.00  0.00
  YSB1171HS02004479       1.00   0.02  0.00  0.00  0.97  0.00  0.00  0.00  0.11  0.00
  HS02004881HS02006253    1.00   0.03  0.00  0.00  0.89  0.01  0.00  0.07  0.76  0.00
  YS02001793JiankangQianchi    1.00   0.00  0.00  0.00  0.94  0.06  0.00  0.00  0.06  0.00
  YS02001757CaochengTiaoxuchi    1.00   0.00  0.06  0.00  0.89  0.05  0.00  0.00  0.00  0.00
  WSF200WS02003060        1.00   0.00  0.06  0.00  0.60  0.34  0.00  0.00  0.33  0.00
  1                       1.00   0.00  0.00  0.00  0.00  1.00  0.00  0.00  0.49  0.00
  2                       1.00   0.70  0.00  0.00  0.00  0.29  0.00  0.00  0.05  0.00
  3                       1.00   0.43  0.00  0.00  0.00  0.57  0.00  0.00  0.29  0.00
  4                       1.00   1.00  0.00  0.00  0.00  0.00  0.00  0.00  0.00  0.00
  
  
  *************************
  Conduit Surcharge Summary
  *************************
  
  ----------------------------------------------------------------------------
                                                           Hours        Hours 
                         --------- Hours Full --------   Above Full   Capacity
  Conduit                Both Ends  Upstream  Dnstream   Normal Flow   Limited
  ----------------------------------------------------------------------------
  WS02006229WS02006228        1.97      2.14      1.97      3.43         1.97
  WS02006256WS02006235        6.35      6.35      7.03      1.74         0.01
  WS02006252WS02006251        0.27      0.27      0.76      0.64         0.01
  WS02006251WS02006249        0.01      0.01      0.01      0.33         0.01
  WS02006249WS02006248        0.01      0.01      0.01      5.58         0.01
  WS02006248WS02006247        0.01      0.01      0.18      0.01         0.01
  WS02006247WS02006245        0.22      0.29      0.22      5.96         0.21
  WS02006245WS02006243        0.30      0.30      0.63      0.02         0.01
  WS02006243WS02006242        0.73      0.73      1.46      0.01         0.01
  WS02006242WS02006240        1.25      1.25      1.68      0.75         0.01
  WS02006240WS02006239        1.33      1.33      1.40      0.01         0.01
  WS02006239WS02006238        1.62      1.62      1.73      0.01         0.01
  WS02006238WS02006235        1.63      1.63      1.89      0.01         0.01
  WS02006235WS02006234        1.41      1.41      1.54      6.37         0.04
  WS02006234WS02006232        1.47      1.47      1.98      0.01         0.01
  WS02006232WS02006231        1.21      1.21      1.98      0.01         0.01
  WS02006231WS02006230        0.79      0.79      1.33      6.36         0.02
  WS02006230WS02006229        2.50      3.20      2.50      6.45         2.49
  WS02006228WS02006109        2.06      2.33      2.06      4.65         2.06
  WS02006116WS02004401        0.56      0.56      0.56      0.49         0.48
  WS02006115WS02006116        0.37      0.37      0.38      0.24         0.24
  WS02006112WS02006115        0.32      0.32      1.54      0.01         0.01
  WS02006111WS02006112        0.01      0.01      3.58      0.01         0.01
  WS02006110WS02006113        0.01      0.01      2.24      0.01         0.01
  WS02006109WS02006110        1.44      1.44      2.33      1.44         0.01
  WS02004411WS02004412        0.01      0.01      0.01      0.53         0.01
  WS02004401WS02004402        0.56      0.56      0.60      0.01         0.01
  WS02004410WS02004411        0.01      0.01      0.01      0.46         0.01
  WS02004409WS02004410        0.01      0.01      0.01      0.27         0.01
  WS02004406WS02004407        0.01      0.01      0.72      0.01         0.01
  WS02004405WS02004406        0.72      0.78      0.72      1.49         0.72
  WS02004404WS02004405        0.78      0.84      0.78      6.25         0.78
  WS02004403WS02004404        0.61      0.61      0.84      0.01         0.01
  WS02004402WS02004403        0.60      0.60      0.61      0.55         0.54
  WS02003072WS02003073        0.01      0.01      0.01      5.91         0.01
  HS02004876HS02004881        0.01      0.01      0.01      0.49         0.01
  HS02004785HS02004788        0.01      0.01      0.01      0.35         0.01
  HS02004480HS02004478        0.01      0.01      0.01      0.79         0.01
  YS02001759YS02001757        6.09      6.09      6.12      0.01         0.01
  YS02001762YS02001759        6.09      6.09      6.09      0.01         0.01
  YS02001765YS02001762        6.08      6.08      6.09      0.01         0.01
  YS02001770YS02001767        6.07      6.07      6.07      0.44         0.82
  YS02001774YS02001770        6.07      6.07      6.08      0.01         0.01
  YS02001779YS02001774        6.04      6.04      6.08      0.01         0.01
  YS02001649YS02001757        6.08      6.08      6.12      0.01         0.01
  YS02001767YS02001765        6.07      6.07      6.08      0.01         0.01
  YS02006561YS02001783        1.61      1.61      2.11      0.01         0.01
  YS02001783YS02001784        2.10      2.11      2.21      2.02         1.92
  YS02001784YS02001785        2.05      2.21      2.05      2.74         2.04
  YS02001788YS02001790        2.04      2.04      5.35      0.01         0.01
  YS02001790YS02001791        5.35      5.35      5.42      1.53         1.46
  YS02001791YS02001793        5.42      5.42      5.63      0.01         0.01
  YS02001910YS02001907        1.94      1.94      2.28      0.01         0.01
  YS02001786YS02001788        2.04      2.05      2.04      2.43         2.04
  YS02001915YS02001910        1.75      1.75      1.94      0.01         0.01
  YS02001918YS02001915        1.51      1.51      1.75      0.01         0.01
  YS02001923YS02001920        1.32      1.32      1.54      0.01         0.01
  YS02001926YS02001923        0.01      0.01      0.01      0.01         0.01
  YS02001929YS02001926        0.01      0.01      0.01      0.01         0.01
  YS02001920YS02001918        1.51      1.51      1.54      0.01         0.01
  YS02001629YS02163301        6.06      6.06      6.07      0.01         0.01
  YS02001619YS02001622        6.02      6.02      6.02      0.01         0.01
  YS02001622YS02001625        6.02      6.02      6.05      0.01         0.01
  YS02001625YS02001629        6.02      6.02      6.05      0.01         0.01
  YS02163301YS02001633        6.07      6.07      6.08      0.01         0.01
  YS02163601YS02164001        6.08      6.08      6.09      0.01         0.01
  YS02164001YS02001641        6.08      6.08      6.08      0.01         0.02
  YS02001641YS02001644        6.08      6.08      6.08      2.21         2.01
  YS02001647YS02001649        6.05      6.05      6.08      0.01         0.01
  YS02006553YS02006556        2.11      2.11      2.33      0.01         0.01
  YS02006556YS02006558        2.18      2.18      2.37      0.01         0.01
  YSB6556YSB1171              0.01      0.01      0.14      0.01         0.01
  YS02001907YS02006553        2.76      2.76      2.95      0.01         0.01
  YS02006558YS02006561        1.78      2.09      1.78      2.63         1.78
  YS02001633YS02163601        6.08      6.08      6.09      0.01         0.01
  YS02001644YS02001647        6.05      6.05      6.08      0.01         0.01
  YS02001745YS02001748        0.01      0.01      5.99      0.01         0.01
  YS02001748YS02001751        6.00      6.00      6.02      0.01         0.01
  YS02001751YS02001754        6.02      6.02      6.04      0.01         0.01
  YS02001754YS02001757        6.05      6.05      6.12      0.01         0.01
  YS02001882YS02001884        1.76      1.76      1.79      0.01         0.01
  YS02001884YS02001887        1.84      1.84      1.87      0.01         0.01
  YS02001890YS02001895        1.73      1.73      1.96      0.01         0.01
  YS02001895YS02001898        1.71      1.72      1.73      0.01         0.01
  YS02001898YS02001901        1.74      1.74      1.83      0.01         0.01
  YS02001901YS02001904        1.81      1.81      1.83      0.01         0.01
  YS02001904YS02001907        1.81      1.81      2.34      0.01         0.01
  YS02001887YS02001890        1.90      1.90      1.92      0.20         0.01
  YS02001652YS02001649        6.06      6.06      6.08      0.01         0.01
  YS02001655YS02001652        6.02      6.02      6.05      0.01         0.01
  YS02001658YS02001655        5.99      5.99      6.02      0.01         0.01
  YS02001661YS02001658        0.33      0.33      5.99      0.01         0.01
  YS02001664YS02001661        0.01      0.01      1.73      0.01         0.01
  YS02001793JiankangQianchi        5.57      5.57      6.09      0.01         0.01
  YS02001757CaochengTiaoxuchi        5.59      5.59      6.12      0.01         0.01
  
  
  ***************
  Pumping Summary
  ***************
  
  ---------------------------------------------------------------------------------------------------------
                                                  Min       Avg       Max     Total     Power    % Time Off
                        Percent   Number of      Flow      Flow      Flow    Volume     Usage    Pump Curve
  Pump                 Utilized   Start-Ups       LPS       LPS       LPS  10^6 ltr     Kw-hr    Low   High
  ---------------------------------------------------------------------------------------------------------
  CC-Pump-1               55.31           3      0.00    179.47    200.00     2.820      2.12    0.0    0.0
  CC-Pump-2               43.11           5      0.00    152.65    200.00     1.869      2.54    0.0    9.3
  JK-Pump-1               65.95           4      0.00    233.94    300.00     3.300     19.55    0.0    0.0
  JK-Pump-2               25.53           6      0.00    175.54    300.00     1.016      8.62    0.0    0.0
  XR-Pump-1               97.87           2      0.00     88.02     95.00     2.480     15.28    0.0    0.0
  XR-Pump-2               12.76           3      0.00     59.88     95.00     0.199      1.24    0.0    0.0
  XR-Pump-3              100.00           2      0.00     86.38     95.00     2.451     14.88    0.0    0.0
  XR-Pump-4               51.06           2      0.00     81.01     95.00     1.168      5.49    0.0    0.0
  

  Analysis begun on:  Thu Dec 23 17:21:56 2021
  Analysis ended on:  Thu Dec 23 17:22:01 2021
  Total elapsed time: 00:00:05