
  EPA STORM WATER MANAGEMENT MODEL - VERSION 5.1 (Build 5.3.0.dev0)
  --------------------------------------------------------------

  WARNING 04: minimum elevation drop used for Conduit WS02004404WS02004405
  WARNING 03: negative offset ignored for Link YS02001904YS02001907
  
  *********************************************************
  NOTE: The summary statistics displayed in this report are
  based on results found at every computational time step,  
  not just on results from each reporting time step.
  *********************************************************
  
  ****************
  Analysis Options
  ****************
  Flow Units ............... LPS
  Process Models:
    Rainfall/Runoff ........ YES
    RDII ................... NO
    Snowmelt ............... NO
    Groundwater ............ NO
    Flow Routing ........... YES
    Ponding Allowed ........ NO
    Water Quality .......... NO
  Infiltration Method ...... HORTON
  Flow Routing Method ...... DYNWAVE
  Surcharge Method ......... EXTRAN
  Starting Date ............ 08/28/2015 08:00:00
  Ending Date .............. 08/28/2015 15:50:00
  Antecedent Dry Days ...... 8.0
  Report Time Step ......... 00:01:00
  Wet Time Step ............ 00:01:00
  Dry Time Step ............ 00:01:00
  Routing Time Step ........ 5.00 sec
  Variable Time Step ....... YES
  Maximum Trials ........... 8
  Number of Threads ........ 4
  Head Tolerance ........... 0.001500 m
  
  
  **************************        Volume         Depth
  Runoff Quantity Continuity     hectare-m            mm
  **************************     ---------       -------
  Total Precipitation ......         5.151        11.277
  Evaporation Loss .........         0.000         0.000
  Infiltration Loss ........         1.323         2.897
  Surface Runoff ...........         2.817         6.167
  Final Storage ............         1.011         2.215
  Continuity Error (%) .....        -0.015
  
  
  **************************        Volume        Volume
  Flow Routing Continuity        hectare-m      10^6 ltr
  **************************     ---------     ---------
  Dry Weather Inflow .......         0.616         6.165
  Wet Weather Inflow .......         2.816        28.156
  Groundwater Inflow .......         0.000         0.000
  RDII Inflow ..............         0.000         0.000
  External Inflow ..........         0.102         1.024
  External Outflow .........         1.473        14.727
  Flooding Loss ............         1.476        14.763
  Evaporation Loss .........         0.000         0.000
  Exfiltration Loss ........         0.000         0.000
  Initial Stored Volume ....         0.076         0.761
  Final Stored Volume ......         0.662         6.625
  Continuity Error (%) .....        -0.028
  
  
  *************************
  Highest Continuity Errors
  *************************
  Node HS02004842 (17.04%)
  Node YS02001884 (11.38%)
  Node YS02001774 (4.24%)
  Node YSB1171 (3.39%)
  Node HS02004817 (3.15%)
  
  
  ***************************
  Time-Step Critical Elements
  ***************************
  Link WS02006252WS02006251 (90.65%)
  Link 3 (3.26%)
  Link WS02006238WS02006235 (2.08%)
  Link WS02006280WS02006229 (1.16%)
  
  
  ********************************
  Highest Flow Instability Indexes
  ********************************
  Link WS02006113WS02006111 (49)
  Link YS02163301YS02001633 (37)
  Link YS02163601YS02164001 (37)
  Link YS02001629YS02163301 (37)
  Link YS02001619YS02001622 (36)
  
  
  *************************
  Routing Time Step Summary
  *************************
  Minimum Time Step           :     0.05 sec
  Average Time Step           :     0.81 sec
  Maximum Time Step           :     5.00 sec
  Percent in Steady State     :    -0.00
  Average Iterations per Step :     4.44
  Percent Not Converging      :    19.79
  
  
  ***************************
  Subcatchment Runoff Summary
  ***************************
  
  ------------------------------------------------------------------------------------------------------------------------------
                            Total      Total      Total      Total     Imperv       Perv      Total       Total     Peak  Runoff
                           Precip      Runon       Evap      Infil     Runoff     Runoff     Runoff      Runoff   Runoff   Coeff
  Subcatchment                 mm         mm         mm         mm         mm         mm         mm    10^6 ltr      LPS
  ------------------------------------------------------------------------------------------------------------------------------
  sub0                      11.28       0.00       0.00       0.79       9.22       0.00       9.22        0.01     1.44   0.818
  sub1                      11.28       0.00       0.00       1.24       8.78       0.00       8.78        0.06    10.11   0.778
  sub2                      11.28       0.00       0.00       4.17       6.20       0.00       6.20        0.06     9.79   0.549
  sub3                      11.28       0.00       0.00       4.17       6.16       0.00       6.16        0.14    22.44   0.546
  sub4                      11.28       0.00       0.00       1.24       8.63       0.00       8.63        0.18    27.35   0.765
  sub5                      11.28       0.00       0.00       0.79       9.17       0.00       9.17        0.10    18.00   0.813
  sub7                      11.28       0.00       0.00       1.01       9.01       0.00       9.01        0.03     5.34   0.799
  sub8                      11.28       0.00       0.00       1.01       9.00       0.00       9.00        0.06    10.08   0.798
  sub9                      11.28       0.00       0.00       1.01       8.99       0.00       8.99        0.04     7.58   0.798
  sub10                     11.28       0.00       0.00       0.90       9.08       0.00       9.08        0.10    17.43   0.805
  sub11                     11.28       0.00       0.00       0.90       9.10       0.00       9.10        0.11    18.56   0.807
  sub12                     11.28       0.00       0.00       1.47       8.62       0.00       8.62        0.08    13.79   0.765
  sub14                     11.28       0.00       0.00       1.01       8.99       0.00       8.99        0.09    14.98   0.797
  sub15                     11.28       0.00       0.00       3.38       6.91       0.00       6.91        0.12    20.76   0.613
  sub16                     11.28       0.00       0.00       3.72       6.64       0.00       6.64        0.07    12.34   0.589
  sub17                     11.28       0.00       0.00       3.61       6.73       0.00       6.73        0.06    10.18   0.597
  sub22                     11.28       0.00       0.00       4.85       5.64       0.00       5.64        0.36    62.58   0.500
  sub23                     11.28       0.00       0.00       4.17       6.23       0.00       6.23        0.30    52.29   0.553
  sub60                     11.28       0.00       0.00       1.35       7.08       0.00       7.08        2.14   214.31   0.627
  sub61                     11.28       0.00       0.00       1.92       7.22       0.00       7.22        2.23   246.69   0.640
  sub62                     11.28       0.00       0.00       0.90       7.84       0.00       7.84        2.41   259.66   0.695
  sub63                     11.28       0.00       0.00       3.27       6.33       0.00       6.33        1.92   219.77   0.561
  sub64                     11.28       0.00       0.00       1.69       6.79       0.00       6.79        2.06   204.52   0.602
  sub65                     11.28       0.00       0.00       1.47       6.90       0.00       6.90        2.12   208.50   0.612
  sub66                     11.28       0.00       0.00       3.27       5.83       0.00       5.83        1.79   183.42   0.517
  sub67                     11.28       0.00       0.00       0.90       8.30       0.00       8.30        2.56   301.39   0.736
  sub68                     11.28       0.00       0.00       1.58       7.60       0.00       7.60        2.34   264.96   0.674
  sub69                     11.28       0.00       0.00       1.69       7.90       0.00       7.90        1.85   237.25   0.701
  sub70                     11.28       8.07       0.00       6.54      10.49       0.03      10.52        2.41   252.63   0.544
  sub71                     11.28       0.00       0.00       0.90       7.63       0.00       7.63        1.80   186.96   0.676
  sub72                     11.28       0.00       0.00       0.79       6.02       0.00       6.02        1.23   100.40   0.534
  sub73                     11.28      10.24       0.00       7.30      11.40       0.02      11.42        2.68   238.40   0.531
  sub74                     11.28       0.00       0.00       8.46       2.36       0.00       2.36        0.94   126.51   0.209
  
  
  ******************
  Node Depth Summary
  ******************
  
  ---------------------------------------------------------------------------------
                                 Average  Maximum  Maximum  Time of Max    Reported
                                   Depth    Depth      HGL   Occurrence   Max Depth
  Node                 Type       Meters   Meters   Meters  days hr:min      Meters
  ---------------------------------------------------------------------------------
  WS02001211           JUNCTION     0.69     0.73     5.56     0  02:08        0.73
  WS02001212           JUNCTION     0.40     0.45     5.52     0  02:08        0.45
  WS02001213           JUNCTION     0.63     0.71     5.47     0  02:07        0.71
  WS02003069           JUNCTION     0.43     0.56     5.14     0  02:06        0.56
  WS02003072           JUNCTION     0.50     0.62     4.99     0  02:07        0.62
  WS02003073           JUNCTION     0.30     0.38     4.44     0  02:07        0.38
  WS02003060           JUNCTION     0.39     0.49     5.43     0  02:06        0.49
  WS02003066           JUNCTION     0.22     0.31     5.86     0  02:02        0.31
  WS02003059           JUNCTION     0.68     0.77     5.46     0  02:07        0.77
  WS02003067           JUNCTION     0.55     0.71     6.03     0  02:02        0.71
  WS02004401           JUNCTION     0.63     0.88     6.88     0  02:00        0.88
  WS02004402           JUNCTION     0.67     0.91     6.87     0  02:00        0.91
  WS02004403           JUNCTION     0.69     0.92     6.85     0  02:00        0.92
  WS02004404           JUNCTION     0.77     0.99     6.84     0  02:00        0.99
  WS02004406           JUNCTION     0.77     0.98     6.81     0  02:00        0.98
  WS02004409           JUNCTION     0.45     0.69     6.46     0  02:01        0.69
  WS02004410           JUNCTION     0.47     0.71     6.43     0  02:01        0.71
  WS02004411           JUNCTION     0.49     0.71     6.39     0  02:02        0.71
  WS02004412           JUNCTION     0.51     0.72     6.36     0  02:02        0.72
  WS02004413           JUNCTION     0.67     0.87     6.34     0  02:02        0.87
  WS02004405           JUNCTION     0.76     0.98     6.83     0  02:00        0.98
  WS02006109           JUNCTION     0.71     1.00     7.62     0  01:57        1.00
  WS02006110           JUNCTION     0.71     0.94     7.53     0  01:57        0.94
  WS02006111           JUNCTION     0.20     0.29     7.00     0  01:58        0.29
  WS02006112           JUNCTION     0.80     1.19     7.07     0  02:08        1.10
  WS02006113           JUNCTION     0.31     0.47     7.36     0  01:57        0.47
  WS02006115           JUNCTION     0.52     0.79     6.92     0  01:59        0.79
  WS02006116           JUNCTION     0.61     0.86     6.90     0  01:59        0.86
  WS02006230           JUNCTION     0.65     1.04     7.79     0  01:57        1.04
  WS02006231           JUNCTION     0.43     0.70     7.82     0  01:56        0.70
  WS02006232           JUNCTION     0.55     0.82     7.86     0  01:56        0.82
  WS02006234           JUNCTION     0.46     0.74     7.90     0  01:56        0.74
  WS02006235           JUNCTION     0.48     0.76     7.93     0  01:56        0.76
  WS02006238           JUNCTION     0.51     0.79     7.93     0  01:56        0.79
  WS02006240           JUNCTION     0.43     0.69     7.98     0  01:57        0.69
  WS02006242           JUNCTION     0.50     0.75     8.01     0  01:57        0.74
  WS02006243           JUNCTION     0.38     0.62     8.04     0  01:57        0.62
  WS02006245           JUNCTION     0.38     0.58     8.07     0  01:58        0.58
  WS02006247           JUNCTION     0.41     0.59     8.09     0  01:58        0.59
  WS02006248           JUNCTION     0.36     0.52     8.10     0  01:58        0.52
  WS02006249           JUNCTION     0.40     0.53     8.13     0  01:59        0.53
  WS02006239           JUNCTION     0.47     0.75     7.96     0  01:56        0.75
  WS02006251           JUNCTION     0.38     0.50     8.17     0  01:59        0.50
  WS02006252           JUNCTION     0.33     0.35     8.59     0  01:42        0.35
  WS02006253           JUNCTION     0.41     0.53     8.18     0  01:59        0.53
  WS02006256           JUNCTION     0.74     1.15     8.09     0  00:00        1.12
  WS02004138           JUNCTION     0.16     0.17     7.42     0  02:03        0.17
  WS02004407           JUNCTION     0.21     0.31     6.62     0  02:00        0.31
  WS02006228           JUNCTION     0.70     1.05     7.70     0  01:54        1.05
  WS02006229           JUNCTION     0.67     1.05     7.74     0  01:57        1.05
  WS02006280           JUNCTION     0.07     0.16     8.44     0  02:09        0.16
  WS02006284           JUNCTION     0.37     0.51     8.91     0  02:09        0.51
  WS02006287           JUNCTION     0.10     0.24     9.20     0  02:09        0.24
  WSF200               JUNCTION     0.20     0.32     5.56     0  02:02        0.32
  HS02004901           JUNCTION     0.13     0.25    10.07     0  02:07        0.25
  HS02004881           JUNCTION     0.01     0.03     9.06     0  02:08        0.03
  HS02004876           JUNCTION     0.04     0.11     9.14     0  02:05        0.11
  HS02004870           JUNCTION     0.02     0.05     9.34     0  02:09        0.05
  HS02004862           JUNCTION     0.02     0.06     9.44     0  02:09        0.06
  HS02004856           JUNCTION     0.08     0.11     9.54     0  02:09        0.11
  HS02004852           JUNCTION     0.01     0.04     9.55     0  02:09        0.04
  HS02004848           JUNCTION     0.01     0.04     9.64     0  02:09        0.04
  HS02004842           JUNCTION     0.33     0.37     9.64     0  02:09        0.37
  HS02004837           JUNCTION     0.03     0.06     9.64     0  02:09        0.06
  HS02004830           JUNCTION     0.04     0.07     9.54     0  02:09        0.07
  HS02004824           JUNCTION     0.02     0.05     9.45     0  02:10        0.05
  HS02004817           JUNCTION     0.44     0.56     9.40     0  02:09        0.56
  HS02004807           JUNCTION     0.13     0.23     9.40     0  02:09        0.23
  HS02004802           JUNCTION     0.16     0.26     9.39     0  02:09        0.26
  HS02004799           JUNCTION     0.12     0.28     9.49     0  02:07        0.28
  HS02004792           JUNCTION     0.03     0.11     9.63     0  02:07        0.11
  HS02004788           JUNCTION     0.03     0.08     9.98     0  02:08        0.08
  HS02004785           JUNCTION     0.05     0.15    10.05     0  02:08        0.15
  HS02004777           JUNCTION     0.15     0.27    10.06     0  02:07        0.27
  HS02004770           JUNCTION     0.12     0.24    10.07     0  02:07        0.24
  HS02004480           JUNCTION     0.08     0.22     9.46     0  02:07        0.22
  HS02004479           JUNCTION     0.12     0.26     9.46     0  02:08        0.26
  HS02004478           JUNCTION     0.06     0.15     9.38     0  02:08        0.15
  YS02001745           JUNCTION     0.70     0.87     8.39     0  03:08        0.87
  YS02001748           JUNCTION     1.10     2.26     9.34     0  02:27        1.32
  YS02001751           JUNCTION     1.28     2.10     8.98     0  02:27        1.52
  YS02001754           JUNCTION     1.54     2.04     8.65     0  02:27        1.81
  YS02001762           JUNCTION     1.74     2.03     8.43     0  03:02        2.02
  YS02001765           JUNCTION     1.69     1.97     8.42     0  03:16        1.96
  YS02001767           JUNCTION     1.66     1.93     8.42     0  03:22        1.92
  YS02001770           JUNCTION     1.65     1.91     8.40     0  02:46        1.90
  YS02001774           JUNCTION     1.72     1.97     8.40     0  02:48        1.96
  YS02001779           JUNCTION     1.47     1.68     8.37     0  02:27        1.68
  YS02001882           JUNCTION     0.46     1.18     7.89     0  02:57        1.18
  YS02001884           JUNCTION     0.55     1.28     7.89     0  02:58        1.28
  YS02001759           JUNCTION     1.77     2.07     8.43     0  02:58        2.06
  YS02001887           JUNCTION     0.63     1.36     7.90     0  02:57        1.35
  YS02001890           JUNCTION     0.66     1.39     7.90     0  02:57        1.38
  YS02001898           JUNCTION     0.43     1.14     7.88     0  02:57        1.14
  YS02001901           JUNCTION     0.55     1.27     7.88     0  02:56        1.26
  YS02001904           JUNCTION     0.53     1.24     7.87     0  02:57        1.24
  YS02001907           JUNCTION     0.86     1.59     7.88     0  02:59        1.58
  YS02001910           JUNCTION     0.65     1.37     7.88     0  02:57        1.37
  YS02001915           JUNCTION     0.44     1.16     7.88     0  02:57        1.16
  YS02001918           JUNCTION     0.20     0.81     7.88     0  02:58        0.81
  YS02001619           JUNCTION     1.25     1.58     8.51     0  02:27        1.48
  YS02001629           JUNCTION     1.61     1.85     8.40     0  02:24        1.85
  YS02001641           JUNCTION     1.71     1.98     8.42     0  02:28        1.93
  YS02001644           JUNCTION     1.71     1.92     8.35     0  02:28        1.92
  YS02001652           JUNCTION     1.55     2.11     8.71     0  03:01        1.99
  YS02001655           JUNCTION     1.31     2.15     9.00     0  02:44        1.91
  YS02001920           JUNCTION     0.30     0.87     7.88     0  02:58        0.87
  YS02001923           JUNCTION     0.14     0.62     7.88     0  02:58        0.62
  YS02001926           JUNCTION     0.21     0.44     7.88     0  02:57        0.44
  YS02001929           JUNCTION     0.10     0.17     7.87     0  02:58        0.17
  YS02001658           JUNCTION     1.04     2.18     9.32     0  02:44        1.94
  YS02001661           JUNCTION     0.81     2.28     9.68     0  02:44        1.93
  YS02001664           JUNCTION     0.36     0.57     8.50     0  02:42        0.56
  YS02001622           JUNCTION     1.27     1.58     8.48     0  02:27        1.50
  YS02001633           JUNCTION     1.70     2.00     8.45     0  02:28        1.94
  YS02001649           JUNCTION     1.75     2.05     8.44     0  02:40        2.05
  YS02001757           JUNCTION     1.87     2.17     8.43     0  03:02        2.16
  YS02001895           JUNCTION     0.42     1.14     7.88     0  02:57        1.14
  YS02001625           JUNCTION     1.56     1.78     8.38     0  02:23        1.78
  YS02163301           JUNCTION     1.64     1.91     8.43     0  02:28        1.88
  YS02163601           JUNCTION     1.75     2.06     8.46     0  02:28        1.99
  YS02164001           JUNCTION     1.69     1.99     8.44     0  02:28        1.92
  YS02001647           JUNCTION     1.54     1.80     8.41     0  02:45        1.79
  YSB1154              JUNCTION     0.26     0.41     9.47     0  02:08        0.41
  YSB6556              JUNCTION     0.15     0.30     9.47     0  02:08        0.30
  YSB1174              JUNCTION     0.21     0.36     9.47     0  02:08        0.36
  YSB1171              JUNCTION     0.41     0.56     9.47     0  02:08        0.56
  YS02006553           JUNCTION     0.86     1.58     7.86     0  02:57        1.57
  YS02006561           JUNCTION     0.26     0.80     7.46     0  02:57        0.80
  YS02006556           JUNCTION     0.83     1.53     7.84     0  02:58        1.52
  YS02006558           JUNCTION     0.87     1.57     7.84     0  02:56        1.56
  YS02001783           JUNCTION     0.60     1.64     7.78     0  02:07        1.23
  YS02001784           JUNCTION     0.65     1.84     7.91     0  02:07        1.20
  YS02001786           JUNCTION     0.64     2.07     8.10     0  02:07        1.09
  YS02001788           JUNCTION     0.65     2.28     8.26     0  02:07        1.00
  YS02001790           JUNCTION     0.92     1.96     7.60     0  02:06        1.21
  YS02001791           JUNCTION     1.03     2.72     8.19     0  02:05        1.24
  YS02001793           JUNCTION     1.56     2.92     7.75     0  02:04        1.79
  WS02004139           JUNCTION     0.63     0.67     5.58     0  02:09        0.67
  WSC                  OUTFALL      0.30     0.38     1.05     0  02:08        0.38
  3                    OUTFALL      0.01     0.13     6.13     0  00:00        0.12
  4                    OUTFALL      0.00     0.03     7.03     0  01:59        0.03
  5                    OUTFALL      0.00     0.00     5.00     0  00:00        0.00
  JK-storage           STORAGE      5.18     5.80     6.60     0  02:06        5.80
  CC-storage           STORAGE      1.10     1.37     8.37     0  03:10        1.37
  XR-storage           STORAGE      7.38     7.72     5.72     0  02:00        7.72
  
  
  *******************
  Node Inflow Summary
  *******************
  
  -------------------------------------------------------------------------------------------------
                                  Maximum  Maximum                  Lateral       Total        Flow
                                  Lateral    Total  Time of Max      Inflow      Inflow     Balance
                                   Inflow   Inflow   Occurrence      Volume      Volume       Error
  Node                 Type           LPS      LPS  days hr:min    10^6 ltr    10^6 ltr     Percent
  -------------------------------------------------------------------------------------------------
  WS02001211           JUNCTION      7.35   293.27     0  03:20       0.207        7.56       0.486
  WS02001212           JUNCTION      0.00   293.99     0  03:21           0        7.52       0.253
  WS02001213           JUNCTION      0.00   294.66     0  03:21           0         7.5       0.308
  WS02003069           JUNCTION      0.32   873.55     0  02:06     0.00902        14.5       0.190
  WS02003072           JUNCTION      0.00   873.54     0  02:07           0        14.5       0.236
  WS02003073           JUNCTION      1.82   875.37     0  02:07      0.0514        14.5       0.262
  WS02003060           JUNCTION     16.53   873.25     0  02:06       0.466        14.6       0.180
  WS02003066           JUNCTION      0.00   574.25     0  02:02           0        6.66       0.056
  WS02003059           JUNCTION      0.00   295.92     0  03:20           0        7.48       0.505
  WS02003067           JUNCTION      0.00   574.19     0  02:02           0        6.66       0.122
  WS02004401           JUNCTION      0.00   576.05     0  01:58           0        6.87       0.276
  WS02004402           JUNCTION      0.00   575.73     0  02:00           0        6.85       0.263
  WS02004403           JUNCTION      0.00   575.73     0  02:00           0        6.83       0.242
  WS02004404           JUNCTION      0.16   575.72     0  02:00     0.00457        6.82       0.186
  WS02004406           JUNCTION      0.00   575.83     0  02:00           0        6.79       0.455
  WS02004409           JUNCTION      0.00   575.71     0  02:00           0        6.75       0.195
  WS02004410           JUNCTION      0.00   575.14     0  02:01           0        6.74       0.226
  WS02004411           JUNCTION      0.00   574.68     0  02:01           0        6.72       0.236
  WS02004412           JUNCTION      0.00   574.44     0  02:02           0        6.71       0.261
  WS02004413           JUNCTION      0.00   574.26     0  02:02           0        6.69       0.395
  WS02004405           JUNCTION      0.04   575.80     0  02:00     0.00107        6.81       0.278
  WS02006109           JUNCTION      1.23   567.07     0  01:58      0.0347        6.92       0.300
  WS02006110           JUNCTION      0.00   567.08     0  01:58           0         6.9       0.257
  WS02006111           JUNCTION      0.00   591.79     0  01:59           0        6.87       0.055
  WS02006112           JUNCTION     10.18   581.72     0  01:58      0.0577        6.93       0.387
  WS02006113           JUNCTION      0.00   567.44     0  01:57           0        6.88       0.113
  WS02006115           JUNCTION      0.00   582.18     0  02:08           0         6.9       0.244
  WS02006116           JUNCTION      0.00   576.91     0  01:58           0        6.88       0.236
  WS02006230           JUNCTION     10.28   300.16     0  01:55        0.29        5.17       0.253
  WS02006231           JUNCTION      0.00   290.42     0  01:55           0        4.89       0.147
  WS02006232           JUNCTION      0.00   290.38     0  01:55           0         4.9       0.295
  WS02006234           JUNCTION      0.00   290.94     0  01:56           0        4.91       0.118
  WS02006235           JUNCTION      0.00   290.73     0  01:55           0        4.95       0.192
  WS02006238           JUNCTION      0.00   270.93     0  02:00           0        4.73       0.135
  WS02006240           JUNCTION      0.00   267.91     0  02:00           0        4.72       0.214
  WS02006242           JUNCTION      0.00   266.49     0  02:01           0        4.72       0.271
  WS02006243           JUNCTION      0.00   263.32     0  02:02           0        4.72       0.166
  WS02006245           JUNCTION      0.00   261.97     0  02:02           0        4.73       0.161
  WS02006247           JUNCTION      0.00   260.43     0  02:02           0        4.74       0.138
  WS02006248           JUNCTION      0.00   259.18     0  02:02           0        4.74       0.092
  WS02006249           JUNCTION      0.00   261.02     0  02:02           0        4.75       0.203
  WS02006239           JUNCTION      0.00   270.36     0  02:00           0        4.72       0.196
  WS02006251           JUNCTION      0.08   258.78     0  02:02     0.00217        4.76       0.182
  WS02006252           JUNCTION      0.00   200.00     0  01:50           0        4.43       0.010
  WS02006253           JUNCTION      1.44    57.92     0  02:08     0.00747       0.333       1.103
  WS02006256           JUNCTION      0.00   300.00     0  00:00           0       0.483       0.530
  WS02004138           JUNCTION      0.00   285.00     0  02:00           0        7.38       0.064
  WS02004407           JUNCTION      0.00   575.76     0  02:00           0        6.76       0.089
  WS02006228           JUNCTION      0.00   565.84     0  01:58           0         6.9       0.198
  WS02006229           JUNCTION      0.00   565.82     0  01:57           0        6.91       0.175
  WS02006280           JUNCTION      0.00   274.19     0  02:09           0        1.75       0.004
  WS02006284           JUNCTION      0.10   274.19     0  02:09      0.0027        1.75       0.059
  WS02006287           JUNCTION      0.00   274.08     0  02:09           0        1.75       0.041
  WSF200               JUNCTION      0.00   574.29     0  02:03           0        6.65       0.050
  HS02004901           JUNCTION     12.34    12.34     0  01:36      0.0695      0.0697       2.590
  HS02004881           JUNCTION      5.34    56.62     0  02:08      0.0303       0.326       0.111
  HS02004876           JUNCTION     10.11    51.23     0  02:08      0.0584       0.296       0.183
  HS02004870           JUNCTION     10.08    41.18     0  02:08      0.0575       0.238       0.045
  HS02004862           JUNCTION      9.99    31.21     0  02:08      0.0634        0.18       0.096
  HS02004856           JUNCTION      7.58    21.25     0  02:08      0.0432       0.118       1.231
  HS02004852           JUNCTION      0.00    13.78     0  02:09           0      0.0753       0.072
  HS02004848           JUNCTION     22.44    22.44     0  02:09       0.139       0.139       0.032
  HS02004842           JUNCTION      0.00     8.71     0  02:17           0      0.0763      20.533
  HS02004837           JUNCTION     23.78    32.32     0  02:08       0.279       0.343       0.237
  HS02004830           JUNCTION      0.15    32.46     0  02:09     0.00423       0.333       0.372
  HS02004824           JUNCTION     27.40    59.85     0  02:10       0.181       0.513       0.105
  HS02004817           JUNCTION      0.60    60.44     0  02:10      0.0169       0.529       3.252
  HS02004807           JUNCTION     18.56    78.63     0  02:09       0.106       0.618       0.704
  HS02004802           JUNCTION      0.00    78.69     0  02:10           0       0.615       0.647
  HS02004799           JUNCTION     14.98   164.66     0  02:07      0.0856       0.976       0.270
  HS02004792           JUNCTION     62.86   149.73     0  02:07       0.364       0.891       0.045
  HS02004788           JUNCTION     22.43    86.95     0  02:07       0.166       0.528       0.074
  HS02004785           JUNCTION      0.15    64.59     0  02:07     0.00423       0.363       0.135
  HS02004777           JUNCTION      0.03    64.48     0  02:07    0.000846       0.364       1.448
  HS02004770           JUNCTION     52.29    64.50     0  02:06       0.297       0.365       0.854
  HS02004480           JUNCTION      0.00   195.78     0  02:07           0        1.15       0.098
  HS02004479           JUNCTION      0.00    31.20     0  02:09           0       0.188       0.391
  HS02004478           JUNCTION      0.00   274.07     0  02:08           0        1.75       0.020
  YS02001745           JUNCTION    214.32   413.84     0  02:25        2.14        2.16       0.514
  YS02001748           JUNCTION      0.04   591.57     0  02:25     0.00127        2.15       1.046
  YS02001751           JUNCTION      0.01   306.94     0  02:13     0.00031        2.11       1.119
  YS02001754           JUNCTION      0.26   243.33     0  02:29     0.00733         2.1       1.180
  YS02001762           JUNCTION      0.00   258.13     0  02:31           0        1.81       1.175
  YS02001765           JUNCTION      0.00   257.49     0  02:44           0        1.81       1.350
  YS02001767           JUNCTION      0.54   257.17     0  02:44      0.0151        1.83       1.989
  YS02001770           JUNCTION    259.81   259.81     0  02:54        2.41        2.43       1.314
  YS02001774           JUNCTION      0.00   228.94     0  03:13           0       0.592       4.424
  YS02001779           JUNCTION      0.01   229.30     0  03:13    0.000141       0.561       2.802
  YS02001882           JUNCTION      0.00     9.89     0  02:22           0      0.0154      15.646
  YS02001884           JUNCTION      0.00    16.92     0  02:21           0      0.0506      12.843
  YS02001759           JUNCTION    246.73   501.27     0  02:44        2.23           4       0.573
  YS02001887           JUNCTION    301.84   303.03     0  02:35        2.57         2.6       0.313
  YS02001890           JUNCTION      0.00   302.11     0  02:40           0        2.56       0.346
  YS02001898           JUNCTION      0.00   302.79     0  02:43           0        2.54       0.110
  YS02001901           JUNCTION      0.00   301.15     0  02:51           0        2.54       0.257
  YS02001904           JUNCTION      0.00   301.28     0  02:51           0        2.54       0.236
  YS02001907           JUNCTION      0.00   587.35     0  03:03           0        5.63       0.419
  YS02001910           JUNCTION      0.00   322.20     0  03:06           0         3.1       0.368
  YS02001915           JUNCTION    186.98   320.82     0  03:06         1.8         3.1       0.182
  YS02001918           JUNCTION      0.00   141.14     0  03:06           0         1.3       0.135
  YS02001619           JUNCTION    183.42   183.42     0  02:55        1.79        1.79       0.678
  YS02001629           JUNCTION      0.00   176.53     0  02:39           0        1.66       1.724
  YS02001641           JUNCTION      0.00   374.77     0  02:39           0        3.69       0.567
  YS02001644           JUNCTION    204.56   930.35     0  03:09        2.06        7.36       0.353
  YS02001652           JUNCTION      0.00   292.90     0  02:09           0        1.87       1.220
  YS02001655           JUNCTION      0.15   377.48     0  02:09     0.00434        1.89       1.362
  YS02001920           JUNCTION      2.87   129.77     0  03:06      0.0809        1.31       0.214
  YS02001923           JUNCTION      0.04   109.62     0  03:02     0.00106        1.23       0.048
  YS02001926           JUNCTION      0.05   103.63     0  03:01     0.00147        1.23       0.253
  YS02001929           JUNCTION    100.40   100.40     0  03:01        1.23        1.23       0.039
  YS02001658           JUNCTION      0.00   461.48     0  02:23           0        1.91       1.198
  YS02001661           JUNCTION      0.00   626.74     0  02:41           0        2.67      -0.159
  YS02001664           JUNCTION    219.77   376.37     0  02:41        1.91        2.68       0.266
  YS02001622           JUNCTION      0.00   183.72     0  02:55           0        1.78       1.805
  YS02001633           JUNCTION    208.70   374.36     0  02:39        2.13        3.75       0.857
  YS02001649           JUNCTION      0.00   787.89     0  02:38           0        4.73       0.782
  YS02001757           JUNCTION      0.00  1465.17     0  02:38           0        9.06       1.029
  YS02001895           JUNCTION      0.00   302.16     0  02:40           0        2.55       0.188
  YS02001625           JUNCTION      0.00   183.53     0  02:54           0        1.74       2.263
  YS02163301           JUNCTION      0.00   189.59     0  02:23           0        1.65       1.455
  YS02163601           JUNCTION      0.11   374.48     0  02:39      0.0031        3.71       0.814
  YS02164001           JUNCTION      0.00   374.48     0  02:39           0        3.69       0.538
  YS02001647           JUNCTION      0.00   568.96     0  02:39           0        3.73       0.763
  YSB1154              JUNCTION     18.00    18.00     0  02:07       0.104       0.105       1.400
  YSB6556              JUNCTION      0.00    17.99     0  02:06           0       0.105       1.199
  YSB1174              JUNCTION     13.79    13.79     0  01:35      0.0753      0.0758       1.722
  YSB1171              JUNCTION      0.00    31.24     0  02:07           0       0.187       3.509
  YS02006553           JUNCTION      0.00   587.48     0  03:03           0        5.62       0.268
  YS02006561           JUNCTION      0.00   842.13     0  02:57           0        7.92       0.005
  YS02006556           JUNCTION      0.00   587.35     0  03:03           0        5.62       0.197
  YS02006558           JUNCTION    265.84   842.14     0  02:57        2.36        7.95       0.067
  YS02001783           JUNCTION      0.00   841.26     0  02:59           0        7.92       0.093
  YS02001784           JUNCTION      1.06   842.29     0  02:59      0.0299        7.94       0.136
  YS02001786           JUNCTION      0.06   842.27     0  02:58     0.00159        7.93       0.169
  YS02001788           JUNCTION      0.07   842.34     0  02:59       0.002        7.92       0.174
  YS02001790           JUNCTION      0.15   842.50     0  02:58     0.00437        7.91       0.217
  YS02001791           JUNCTION      0.00   842.51     0  02:58           0         7.9       0.180
  YS02001793           JUNCTION      0.00   842.56     0  02:57           0        7.88       0.203
  WS02004139           JUNCTION      0.32   285.32     0  02:03     0.00905        7.39       0.509
  WSC                  OUTFALL       0.00   875.41     0  02:08           0        14.5       0.000
  3                    OUTFALL       0.00   250.55     0  00:00           0       0.235       0.000
  4                    OUTFALL       0.00     9.62     0  01:59           0     0.00366       0.000
  5                    OUTFALL       0.00     0.00     0  00:00           0           0       0.000 ltr
  JK-storage           STORAGE       0.00   842.59     0  02:57           0        8.02       0.257
  CC-storage           STORAGE       0.00  1465.11     0  02:38           0        8.15       0.788
  XR-storage           STORAGE     549.18   549.18     0  02:55        9.26        9.86      -0.000
  
  
  **********************
  Node Surcharge Summary
  **********************
  
  Surcharging occurs when water rises above the top of the highest conduit.
  ---------------------------------------------------------------------
                                               Max. Height   Min. Depth
                                   Hours       Above Crown    Below Rim
  Node                 Type      Surcharged         Meters       Meters
  ---------------------------------------------------------------------
  WS02006109           JUNCTION        1.38          0.182        1.638
  WS02006110           JUNCTION        0.59          0.033        1.817
  WS02006112           JUNCTION        0.86          0.191        1.489
  WS02006232           JUNCTION        0.80          0.119        1.361
  WS02006234           JUNCTION        0.11          0.021        1.219
  WS02006235           JUNCTION        0.20          0.054        1.236
  WS02006238           JUNCTION        0.36          0.070        1.360
  WS02006242           JUNCTION        0.09          0.015        0.805
  WS02006239           JUNCTION        0.08          0.010        1.280
  WS02006228           JUNCTION        1.36          0.221        1.979
  YS02001748           JUNCTION        5.26          1.180        0.010
  YS02001751           JUNCTION        5.51          1.098        0.102
  YS02001754           JUNCTION        5.73          0.994        0.156
  YS02001762           JUNCTION        5.96          1.028        0.122
  YS02001765           JUNCTION        5.94          0.973        0.127
  YS02001767           JUNCTION        5.92          0.928        0.102
  YS02001770           JUNCTION        5.89          0.877        0.043
  YS02001774           JUNCTION        5.95          0.973        0.077
  YS02001779           JUNCTION        5.71          0.680        0.000
  YS02001882           JUNCTION        0.48          0.177        0.653
  YS02001884           JUNCTION        0.56          0.217        0.653
  YS02001759           JUNCTION        5.98          1.065        0.145
  YS02001887           JUNCTION        0.71          0.312        0.638
  YS02001890           JUNCTION        0.76          0.343        0.417
  YS02001898           JUNCTION        0.37          0.115        0.625
  YS02001901           JUNCTION        0.65          0.274        0.596
  YS02001904           JUNCTION        0.61          0.242        0.608
  YS02001907           JUNCTION        1.44          0.577        0.373
  YS02001910           JUNCTION        0.83          0.374        0.726
  YS02001915           JUNCTION        0.45          0.159        0.841
  YS02001619           JUNCTION        5.54          0.584        0.026
  YS02001629           JUNCTION        5.54          0.470        0.000
  YS02001641           JUNCTION        5.95          0.982        0.118
  YS02001644           JUNCTION        5.95          0.920        0.000
  YS02001652           JUNCTION        5.75          1.083        0.047
  YS02001655           JUNCTION        5.58          1.150        0.050
  YS02001658           JUNCTION        5.29          1.177        0.123
  YS02001661           JUNCTION        0.22          1.211        0.179
  YS02001622           JUNCTION        5.59          0.578        0.042
  YS02001633           JUNCTION        5.93          0.977        0.083
  YS02001649           JUNCTION        5.96          1.050        0.000
  YS02001757           JUNCTION        6.04          1.169        0.041
  YS02001895           JUNCTION        0.41          0.138        0.612
  YS02001625           JUNCTION        5.76          0.780        0.000
  YS02163301           JUNCTION        5.91          0.913        0.117
  YS02163601           JUNCTION        5.97          1.057        0.023
  YS02164001           JUNCTION        5.94          0.986        0.114
  YS02001647           JUNCTION        5.75          0.804        0.096
  YS02006553           JUNCTION        1.50          0.580        0.610
  YS02006556           JUNCTION        1.12          0.493        0.857
  YS02006558           JUNCTION        1.07          0.471        0.929
  YS02001783           JUNCTION        1.37          0.843        0.757
  YS02001784           JUNCTION        1.44          1.045        0.445
  YS02001786           JUNCTION        1.38          1.272        0.158
  YS02001788           JUNCTION        1.36          1.480        0.000
  YS02001790           JUNCTION        5.73          1.157        0.000
  YS02001791           JUNCTION        5.74          1.920        0.000
  YS02001793           JUNCTION        5.76          1.918        0.682
  
  
  *********************
  Node Flooding Summary
  *********************
  
  Flooding refers to all water that overflows a node, whether it ponds or not.
  --------------------------------------------------------------------------
                                                             Total   Maximum
                                 Maximum   Time of Max       Flood    Ponded
                        Hours       Rate    Occurrence      Volume     Depth
  Node                 Flooded       LPS   days hr:min    10^6 ltr    Meters
  --------------------------------------------------------------------------
  YS02001779              2.23    229.15      0  03:13       0.541     0.000
  YS02001629              0.01     32.47      0  02:24       0.000     0.000
  YS02001644              4.54    930.23      0  03:09       5.223     0.000
  YS02001649              0.07     38.94      0  02:44       0.003     0.000
  YS02001625              0.57     36.74      0  02:55       0.045     0.000
  YS02001788              0.01     43.99      0  02:07       0.000     0.000
  YS02001790              0.01    179.00      0  02:06       0.000     0.000
  YS02001791              0.01    180.39      0  02:05       0.000     0.000
  JK-storage              5.72    842.58      0  02:57       7.222     0.000
  XR-storage              3.87    264.18      0  02:55       1.728     0.000
  
  
  **********************
  Storage Volume Summary
  **********************
  
  --------------------------------------------------------------------------------------------------
                         Average     Avg  Evap Exfil       Maximum     Max    Time of Max    Maximum
                          Volume    Pcnt  Pcnt  Pcnt        Volume    Pcnt     Occurrence    Outflow
  Storage Unit           1000 m3    Full  Loss  Loss       1000 m3    Full    days hr:min        LPS
  --------------------------------------------------------------------------------------------------
  JK-storage               0.260      89     0     0         0.291     100       0  02:06     300.00
  CC-storage               3.068      20     0     0         3.820      24       0  03:10     200.00
  XR-storage               0.885      96     0     0         0.926     100       0  02:00     285.00
  
  
  ***********************
  Outfall Loading Summary
  ***********************
  
  -----------------------------------------------------------
                         Flow       Avg       Max       Total
                         Freq      Flow      Flow      Volume
  Outfall Node           Pcnt       LPS       LPS    10^6 ltr
  -----------------------------------------------------------
  WSC                   99.99    574.59    875.41      14.488
  3                      7.32    129.56    250.55       0.235
  4                      5.21      2.98      9.62       0.004
  5                      0.00      0.00      0.00       0.000
  -----------------------------------------------------------
  System                28.13    707.13    875.75      14.727
  
  
  ********************
  Link Flow Summary
  ********************
  
  -----------------------------------------------------------------------------
                                 Maximum  Time of Max   Maximum    Max/    Max/
                                  |Flow|   Occurrence   |Veloc|    Full    Full
  Link                 Type          LPS  days hr:min     m/sec    Flow   Depth
  -----------------------------------------------------------------------------
  WS02003066WSF200     CONDUIT    574.29     0  02:03      2.74    0.10    0.24
  WS02006287WS02006284 CONDUIT    274.09     0  02:09      1.78    0.13    0.25
  WS02006284WS02006280 CONDUIT    274.19     0  02:09      2.02    0.11    0.23
  WS02006280WS02006229 CONDUIT    274.19     0  02:09      3.26    0.06    0.16
  WS02006229WS02006228 CONDUIT    565.84     0  01:58      1.13    1.87    1.00
  WS02006256WS02006235 CONDUIT    166.25     0  00:01      2.58    1.76    1.00
  WS02006253WS02006251 CONDUIT     58.71     0  02:02      0.52    0.18    0.73
  WS02006252WS02006251 CONDUIT    200.85     0  01:42      1.97    0.74    0.76
  WS02006251WS02006249 CONDUIT    261.02     0  02:02      0.99    0.75    0.74
  WS02006249WS02006248 CONDUIT    259.18     0  02:02      1.08    1.42    0.73
  WS02006248WS02006247 CONDUIT    260.43     0  02:02      1.04    0.57    0.78
  WS02006247WS02006245 CONDUIT    261.97     0  02:02      1.01    2.08    0.83
  WS02006245WS02006243 CONDUIT    263.32     0  02:02      1.07    0.78    0.85
  WS02006243WS02006242 CONDUIT    266.49     0  02:01      0.86    0.57    0.94
  WS02006242WS02006240 CONDUIT    267.91     0  02:00      0.79    1.06    0.99
  WS02006240WS02006239 CONDUIT    270.36     0  02:00      0.86    0.85    0.99
  WS02006239WS02006238 CONDUIT    270.93     0  02:00      0.77    0.87    1.00
  WS02006238WS02006235 CONDUIT    270.84     0  02:00      1.25    0.60    1.00
  WS02006235WS02006234 CONDUIT    290.94     0  01:56      0.93    3.07    1.00
  WS02006234WS02006232 CONDUIT    290.38     0  01:55      1.13    0.59    1.00
  WS02006232WS02006231 CONDUIT    290.42     0  01:55      0.78    0.61    0.99
  WS02006231WS02006230 CONDUIT    289.88     0  01:55      1.13    4.40    0.97
  WS02006230WS02006229 CONDUIT    299.95     0  01:56      0.86    6.68    1.00
  WS02006228WS02006109 CONDUIT    565.84     0  01:58      1.13    2.47    1.00
  WS02006116WS02004401 CONDUIT    576.05     0  01:58      0.79    0.79    0.87
  WS02006115WS02006116 CONDUIT    576.91     0  01:58      0.87    0.74    0.79
  WS02006113WS02006111 CONDUIT    591.79     0  01:59      2.51    0.71    0.48
  WS02006112WS02006115 CONDUIT    582.18     0  02:08      0.80    0.34    0.89
  WS02006111WS02006112 CONDUIT    571.60     0  01:58      1.58    0.27    0.68
  WS02006110WS02006113 CONDUIT    567.44     0  01:57      1.33    0.52    0.79
  WS02006109WS02006110 CONDUIT    567.08     0  01:58      1.13    1.09    1.00
  WS02004411WS02004412 CONDUIT    574.44     0  02:02      0.96    0.82    0.72
  WS02004401WS02004402 CONDUIT    575.73     0  02:00      0.78    0.69    0.89
  WS02004413WS02003067 CONDUIT    574.19     0  02:02      1.15    0.25    0.61
  WS02004412WS02004413 CONDUIT    574.26     0  02:02      0.86    0.38    0.80
  WS02004410WS02004411 CONDUIT    574.68     0  02:01      0.97    0.78    0.71
  WS02004409WS02004410 CONDUIT    575.14     0  02:01      0.98    0.74    0.70
  WS02004407WS02004409 CONDUIT    575.71     0  02:00      1.48    0.20    0.50
  WS02004406WS02004407 CONDUIT    575.76     0  02:00      1.08    0.26    0.64
  WS02004405WS02004406 CONDUIT    575.83     0  02:00      0.74    1.14    0.98
  WS02004404WS02004405 CONDUIT    575.76     0  02:00      0.84    5.64    0.98
  WS02004403WS02004404 CONDUIT    575.56     0  02:00      0.75    0.42    0.95
  WS02004402WS02004403 CONDUIT    575.73     0  02:00      0.77    0.83    0.91
  WS02004139WS02001211 CONDUIT    285.93     0  03:20      0.69    0.36    0.54
  WS02004138WS02004139 CONDUIT    285.00     0  02:03      2.94    0.06    0.39
  WS02003067WS02003066 CONDUIT    574.25     0  02:02      1.25    0.18    0.43
  WS02001213WS02003059 CONDUIT    295.92     0  03:20      0.65    0.49    0.73
  WS02001212WS02001213 CONDUIT    294.66     0  03:21      1.16    0.45    0.42
  WS02001211WS02001212 CONDUIT    293.99     0  03:21      0.66    0.22    0.59
  WS02003072WS02003073 CONDUIT    873.55     0  02:07      1.68    1.89    0.47
  WS02003069WS02003072 CONDUIT    873.54     0  02:07      1.58    0.42    0.49
  WS02003060WS02003069 CONDUIT    873.23     0  02:06      1.83    0.34    0.44
  WS02003059WS02003060 CONDUIT    297.68     0  03:19      0.69    0.19    0.63
  HS02004901HS02004770 CONDUIT     12.22     0  02:07      0.05    0.05    0.35
  HS02004876HS02004881 CONDUIT     51.32     0  02:08      0.76    0.55    0.10
  HS02004870HS02004876 CONDUIT     41.17     0  02:09      0.52    0.03    0.11
  HS02004842HS02004848 CONDUIT      8.71     0  02:17      0.04    0.01    0.29
  HS02004837HS02004842 CONDUIT      8.85     0  02:14      0.41    0.01    0.30
  HS02004830HS02004837 CONDUIT     32.31     0  02:09      0.50    0.03    0.09
  HS02004824HS02004830 CONDUIT     32.45     0  02:09      0.53    0.04    0.09
  HS02004817HS02004824 CONDUIT     59.84     0  02:10      0.20    0.03    0.43
  HS02004770HS02004777 CONDUIT     64.45     0  02:07      0.26    0.12    0.36
  HS02004799HS02004480 CONDUIT    164.63     0  02:07      0.67    0.21    0.35
  HS02004792HS02004799 CONDUIT    149.69     0  02:07      0.76    0.09    0.28
  HS02004788HS02004792 CONDUIT     86.94     0  02:08      0.90    0.06    0.14
  HS02004785HS02004788 CONDUIT     64.57     0  02:08      0.57    0.49    0.16
  HS02004777HS02004785 CONDUIT     64.44     0  02:07      0.31    0.08    0.29
  HS02004480HS02004478 CONDUIT    195.75     0  02:08      1.06    0.82    0.26
  HS02004479HS02004480 CONDUIT     31.31     0  02:10      0.28    0.03    0.34
  HS02004862HS02004870 CONDUIT     31.19     0  02:09      0.56    0.03    0.08
  HS02004848HS02004852 CONDUIT     13.78     0  02:09      0.38    0.02    0.05
  HS02004856HS02004862 CONDUIT     21.24     0  02:09      0.41    0.02    0.07
  HS02004852HS02004856 CONDUIT     13.76     0  02:09      0.18    0.02    0.11
  HS02004802HS02004478 CONDUIT     78.88     0  02:11      0.38    0.07    0.29
  HS02004478WS02006287 CONDUIT    274.08     0  02:09      1.48    0.08    0.21
  HS02004817HS02004807 CONDUIT     60.62     0  02:11      0.15    0.04    0.56
  HS02004807HS02004802 CONDUIT     78.69     0  02:10      0.32    0.15    0.35
  YS02001759YS02001757 CONDUIT    501.35     0  02:43      0.64    0.36    1.00
  YS02001762YS02001759 CONDUIT    259.62     0  02:31      0.33    0.30    1.00
  YS02001765YS02001762 CONDUIT    258.13     0  02:31      0.33    0.24    1.00
  YS02001770YS02001767 CONDUIT    256.64     0  02:44      0.38    1.02    1.00
  YS02001774YS02001770 CONDUIT    228.94     0  03:13      0.29    0.15    1.00
  YS02001779YS02001774 CONDUIT    229.29     0  03:13      0.29    0.12    1.00
  YS02001649YS02001757 CONDUIT    788.16     0  02:38      1.00    0.48    1.00
  YS02001767YS02001765 CONDUIT    257.49     0  02:44      0.35    0.32    1.00
  YS02006561YS02001783 CONDUIT    841.26     0  02:59      2.10    0.44    1.00
  YS02001783YS02001784 CONDUIT    841.23     0  02:59      1.67    1.16    1.00
  YS02001784YS02001785 CONDUIT    842.21     0  02:58      1.68    1.96    1.00
  YS02001788YS02001790 CONDUIT    842.34     0  02:58      2.17    0.62    1.00
  YS02001790YS02001791 CONDUIT    842.51     0  02:58      2.56    0.92    1.00
  YS02001791YS02001793 CONDUIT    842.56     0  02:57      5.17    0.36    1.00
  YS02001910YS02001907 CONDUIT    322.07     0  03:06      0.49    0.18    1.00
  YS02001786YS02001788 CONDUIT    842.27     0  02:59      2.08    1.62    1.00
  YS02001915YS02001910 CONDUIT    322.20     0  03:06      0.56    0.16    1.00
  YS02001918YS02001915 CONDUIT    149.38     0  03:06      0.44    0.08    0.91
  YS02001923YS02001920 CONDUIT    126.90     0  03:06      0.66    0.06    0.74
  YS02001926YS02001923 CONDUIT    109.58     0  03:02      0.76    0.16    0.42
  YS02001929YS02001926 CONDUIT    103.58     0  03:01      0.81    0.05    0.31
  YS02001920YS02001918 CONDUIT    141.14     0  03:06      0.65    0.14    0.84
  YS02001629YS02163301 CONDUIT    189.59     0  02:23      0.24    0.23    1.00
  YS02001619YS02001622 CONDUIT    183.72     0  02:55      0.67    0.27    1.00
  YS02001622YS02001625 CONDUIT    183.53     0  02:54      0.32    0.10    1.00
  YS02001625YS02001629 CONDUIT    176.53     0  02:39      0.27    0.08    1.00
  YS02163301YS02001633 CONDUIT    189.92     0  02:23      0.24    0.18    1.00
  YS02163601YS02164001 CONDUIT    374.48     0  02:39      0.48    0.33    1.00
  YS02164001YS02001641 CONDUIT    374.77     0  02:39      0.48    0.51    1.00
  YS02001641YS02001644 CONDUIT    375.22     0  02:39      0.48    1.21    1.00
  YS02001647YS02001649 CONDUIT    568.87     0  02:39      0.72    0.30    1.00
  YS02006553YS02006556 CONDUIT    587.35     0  03:03      0.75    0.50    1.00
  YS02006556YS02006558 CONDUIT    587.51     0  03:02      0.75    0.46    1.00
  YSB6556YSB1171       CONDUIT     18.03     0  02:09      0.07    0.02    0.61
  YS02001907YS02006553 CONDUIT    587.48     0  03:03      0.65    0.69    1.00
  YS02006558YS02006561 CONDUIT    842.13     0  02:57      3.15    1.86    1.00
  YS02001633YS02163601 CONDUIT    374.37     0  02:39      0.48    0.39    1.00
  YS02001644YS02001647 CONDUIT    568.96     0  02:39      0.72    0.33    1.00
  YS02001745YS02001748 CONDUIT    591.52     0  02:25      1.53    0.23    0.94
  YS02001748YS02001751 CONDUIT    306.93     0  02:13      1.14    0.16    1.00
  YS02001751YS02001754 CONDUIT    243.07     0  02:29      0.97    0.12    1.00
  YS02001754YS02001757 CONDUIT    243.73     0  02:29      0.33    0.10    1.00
  YS02001882YS02001884 CONDUIT      9.89     0  02:22      0.12    0.01    1.00
  YS02001884YS02001887 CONDUIT     18.07     0  03:25      0.09    0.02    1.00
  YS02001890YS02001895 CONDUIT    302.16     0  02:40      0.44    0.14    1.00
  YS02001895YS02001898 CONDUIT    302.79     0  02:43      0.57    0.53    1.00
  YS02001898YS02001901 CONDUIT    301.15     0  02:51      0.48    0.19    1.00
  YS02001901YS02001904 CONDUIT    301.28     0  02:51      0.44    0.47    1.00
  YS02001904YS02001907 CONDUIT    301.21     0  02:51      0.39    0.11    1.00
  YS02001887YS02001890 CONDUIT    302.11     0  02:40      0.40    0.52    1.00
  YS02001652YS02001649 CONDUIT    297.63     0  02:09      0.58    0.15    1.00
  YS02001655YS02001652 CONDUIT    292.90     0  02:09      1.05    0.14    1.00
  YS02001658YS02001655 CONDUIT    377.32     0  02:09      1.31    0.16    1.00
  YS02001661YS02001658 CONDUIT    461.48     0  02:23      1.61    0.18    1.00
  YS02001664YS02001661 CONDUIT    626.74     0  02:41      1.57    0.20    0.71
  YSB1154YSB6556       CONDUIT     17.99     0  02:06      0.16    0.03    0.50
  YSB1174YSB1171       CONDUIT     13.75     0  01:36      0.06    0.02    0.62
  YSB1171HS02004479    CONDUIT     31.20     0  02:09      0.54    0.02    0.48
  HS02004881HS02006253 CONDUIT     56.61     0  02:08      1.79    0.01    0.16
  YS02001793JiankangQianchi CONDUIT    842.59     0  02:57     13.02    0.07    1.00
  YS02001757CaochengTiaoxuchi CONDUIT   1465.11     0  02:38      2.39    0.64    1.00
  WSF200WS02003060     CONDUIT    574.56     0  02:03      1.74    0.13    0.34
  1                    CONDUIT    875.41     0  02:08      3.21    0.30    0.38
  2                    CONDUIT      9.62     0  01:59      2.44    0.02    0.10
  3                    CONDUIT    250.55     0  00:00      8.26    0.40    0.46
  4                    CONDUIT      0.00     0  00:00      0.00    0.00    0.00
  CC-Pump-1            PUMP       200.00     0  02:00              1.00
  CC-Pump-2            PUMP       200.00     0  01:42              1.00
  JK-Pump-1            PUMP       300.00     0  00:00              1.00
  JK-Pump-2            PUMP         0.00     0  00:00              0.00
  XR-Pump-1            PUMP        95.00     0  00:00              1.00
  XR-Pump-2            PUMP         0.00     0  00:00              0.00
  XR-Pump-3            PUMP        95.00     0  00:00              1.00
  XR-Pump-4            PUMP        95.00     0  02:00              1.00
  
  
  ***************************
  Flow Classification Summary
  ***************************
  
  -------------------------------------------------------------------------------------
                      Adjusted    ---------- Fraction of Time in Flow Class ---------- 
                       /Actual         Up    Down  Sub   Sup   Up    Down  Norm  Inlet 
  Conduit               Length    Dry  Dry   Dry   Crit  Crit  Crit  Crit  Ltd   Ctrl  
  -------------------------------------------------------------------------------------
  WS02003066WSF200        1.00   0.06  0.00  0.00  0.00  0.94  0.00  0.00  0.66  0.00
  WS02006287WS02006284    1.00   0.04  0.01  0.00  0.60  0.35  0.00  0.00  0.68  0.00
  WS02006284WS02006280    1.00   0.04  0.00  0.00  0.00  0.00  0.00  0.96  0.00  0.00
  WS02006280WS02006229    1.00   0.04  0.00  0.00  0.00  0.00  0.00  0.96  0.00  0.00
  WS02006229WS02006228    1.00   0.00  0.00  0.00  0.99  0.00  0.00  0.01  0.00  0.00
  WS02006256WS02006235    1.00   0.00  0.00  0.00  1.00  0.00  0.00  0.00  0.00  0.00
  WS02006253WS02006251    1.00   0.03  0.01  0.00  0.96  0.00  0.00  0.00  0.00  0.00
  WS02006252WS02006251    1.00   0.06  0.00  0.00  0.00  0.00  0.94  0.00  0.00  0.00
  WS02006251WS02006249    1.00   0.00  0.00  0.00  1.00  0.00  0.00  0.00  0.18  0.00
  WS02006249WS02006248    1.00   0.00  0.02  0.00  0.94  0.00  0.04  0.00  0.00  0.00
  WS02006248WS02006247    1.00   0.02  0.00  0.00  0.98  0.00  0.00  0.00  0.07  0.00
  WS02006247WS02006245    1.00   0.02  0.00  0.00  0.98  0.00  0.00  0.00  0.00  0.00
  WS02006245WS02006243    1.00   0.01  0.00  0.00  0.96  0.00  0.00  0.03  0.01  0.00
  WS02006243WS02006242    1.00   0.01  0.00  0.00  0.99  0.00  0.00  0.00  0.17  0.00
  WS02006242WS02006240    1.00   0.00  0.00  0.00  1.00  0.00  0.00  0.00  0.00  0.00
  WS02006240WS02006239    1.00   0.00  0.00  0.00  0.97  0.00  0.00  0.03  0.01  0.00
  WS02006239WS02006238    1.00   0.00  0.00  0.00  1.00  0.00  0.00  0.00  0.01  0.00
  WS02006238WS02006235    1.00   0.00  0.00  0.00  1.00  0.00  0.00  0.00  0.00  0.00
  WS02006235WS02006234    1.00   0.00  0.00  0.00  0.97  0.00  0.03  0.00  0.00  0.00
  WS02006234WS02006232    1.00   0.00  0.00  0.00  1.00  0.00  0.00  0.00  0.08  0.00
  WS02006232WS02006231    1.00   0.00  0.00  0.00  0.99  0.00  0.00  0.00  0.00  0.00
  WS02006231WS02006230    1.00   0.00  0.00  0.00  0.27  0.00  0.73  0.00  0.00  0.00
  WS02006230WS02006229    1.00   0.00  0.00  0.00  0.99  0.00  0.00  0.01  0.01  0.00
  WS02006228WS02006109    1.00   0.00  0.00  0.00  1.00  0.00  0.00  0.00  0.00  0.00
  WS02006116WS02004401    1.00   0.02  0.00  0.00  0.98  0.00  0.00  0.00  0.00  0.00
  WS02006115WS02006116    1.00   0.02  0.00  0.00  0.97  0.00  0.00  0.01  0.00  0.00
  WS02006113WS02006111    1.00   0.02  0.00  0.00  0.00  0.98  0.00  0.00  0.14  0.00
  WS02006112WS02006115    1.00   0.02  0.00  0.00  0.98  0.00  0.00  0.00  0.00  0.00
  WS02006111WS02006112    1.00   0.02  0.00  0.00  0.98  0.00  0.00  0.00  0.98  0.00
  WS02006110WS02006113    1.00   0.01  0.01  0.00  0.98  0.00  0.00  0.00  0.00  0.00
  WS02006109WS02006110    1.00   0.00  0.01  0.00  0.98  0.00  0.01  0.00  0.00  0.00
  WS02004411WS02004412    1.00   0.04  0.00  0.00  0.96  0.00  0.00  0.00  0.00  0.00
  WS02004401WS02004402    1.00   0.02  0.00  0.00  0.98  0.00  0.00  0.00  0.00  0.00
  WS02004413WS02003067    1.00   0.04  0.02  0.00  0.00  0.00  0.95  0.00  0.00  0.00
  WS02004412WS02004413    1.00   0.04  0.00  0.00  0.96  0.00  0.00  0.00  0.03  0.00
  WS02004410WS02004411    1.00   0.04  0.00  0.00  0.96  0.00  0.00  0.00  0.03  0.00
  WS02004409WS02004410    1.00   0.04  0.00  0.00  0.96  0.00  0.00  0.00  0.01  0.00
  WS02004407WS02004409    1.00   0.04  0.00  0.00  0.96  0.00  0.00  0.00  0.89  0.00
  WS02004406WS02004407    1.00   0.00  0.04  0.00  0.96  0.00  0.00  0.00  0.00  0.00
  WS02004405WS02004406    1.00   0.00  0.00  0.00  1.00  0.00  0.00  0.00  0.01  0.00
  WS02004404WS02004405    1.00   0.00  0.00  0.00  1.00  0.00  0.00  0.00  0.00  0.00
  WS02004403WS02004404    1.00   0.00  0.03  0.00  0.97  0.00  0.00  0.00  0.01  0.00
  WS02004402WS02004403    1.00   0.02  0.00  0.00  0.98  0.00  0.00  0.00  0.00  0.00
  WS02004139WS02001211    1.00   0.00  0.00  0.00  1.00  0.00  0.00  0.00  0.00  0.00
  WS02004138WS02004139    1.00   0.00  0.00  0.00  0.99  0.01  0.00  0.00  1.00  0.00
  WS02003067WS02003066    1.00   0.05  0.00  0.00  0.94  0.00  0.00  0.00  0.00  0.00
  WS02001213WS02003059    1.00   0.00  0.00  0.00  0.99  0.00  0.00  0.00  0.00  0.00
  WS02001212WS02001213    1.00   0.00  0.00  0.00  0.92  0.00  0.08  0.00  0.00  0.00
  WS02001211WS02001212    1.00   0.00  0.00  0.00  1.00  0.00  0.00  0.00  0.00  0.00
  WS02003072WS02003073    1.00   0.00  0.00  0.00  0.00  0.00  0.00  1.00  0.00  0.00
  WS02003069WS02003072    1.00   0.00  0.00  0.00  0.99  0.01  0.00  0.00  0.20  0.00
  WS02003060WS02003069    1.00   0.00  0.00  0.00  0.99  0.01  0.00  0.00  0.18  0.00
  WS02003059WS02003060    1.00   0.00  0.00  0.00  1.00  0.00  0.00  0.00  0.01  0.00
  HS02004901HS02004770    1.00   0.04  0.00  0.00  0.96  0.00  0.00  0.00  0.00  0.00
  HS02004876HS02004881    1.00   0.02  0.00  0.00  0.98  0.00  0.00  0.00  0.00  0.00
  HS02004870HS02004876    1.00   0.01  0.00  0.00  0.99  0.00  0.00  0.00  0.95  0.00
  HS02004842HS02004848    1.00   0.00  0.04  0.00  0.96  0.00  0.00  0.00  0.58  0.00
  HS02004837HS02004842    1.00   0.00  0.00  0.00  0.99  0.01  0.00  0.00  0.11  0.00
  HS02004830HS02004837    1.00   0.00  0.00  0.00  1.00  0.00  0.00  0.00  0.99  0.00
  HS02004824HS02004830    1.00   0.00  0.00  0.00  1.00  0.00  0.00  0.00  0.00  0.00
  HS02004817HS02004824    1.00   0.00  0.00  0.00  1.00  0.00  0.00  0.00  1.00  0.00
  HS02004770HS02004777    1.00   0.00  0.04  0.00  0.96  0.00  0.00  0.00  0.03  0.00
  HS02004799HS02004480    1.00   0.00  0.02  0.00  0.95  0.00  0.02  0.00  0.00  0.00
  HS02004792HS02004799    1.00   0.00  0.00  0.00  0.99  0.01  0.00  0.00  0.98  0.00
  HS02004788HS02004792    1.00   0.00  0.00  0.00  0.99  0.01  0.00  0.00  0.98  0.00
  HS02004785HS02004788    1.00   0.00  0.00  0.00  1.00  0.00  0.00  0.00  0.00  0.00
  HS02004777HS02004785    1.00   0.00  0.00  0.00  1.00  0.00  0.00  0.00  0.12  0.00
  HS02004480HS02004478    1.00   0.04  0.00  0.00  0.66  0.00  0.00  0.30  0.00  0.00
  HS02004479HS02004480    1.00   0.03  0.00  0.00  0.97  0.00  0.00  0.00  0.12  0.00
  HS02004862HS02004870    1.00   0.00  0.00  0.00  1.00  0.00  0.00  0.00  0.04  0.00
  HS02004848HS02004852    1.00   0.04  0.00  0.00  0.96  0.00  0.00  0.00  0.76  0.00
  HS02004856HS02004862    1.00   0.00  0.05  0.00  0.95  0.00  0.00  0.00  0.83  0.00
  HS02004852HS02004856    1.00   0.04  0.00  0.00  0.96  0.00  0.00  0.00  0.86  0.00
  HS02004802HS02004478    1.00   0.04  0.00  0.00  0.96  0.00  0.00  0.00  0.03  0.00
  HS02004478WS02006287    1.00   0.05  0.00  0.00  0.72  0.23  0.00  0.00  0.65  0.00
  HS02004817HS02004807    1.00   0.00  0.04  0.00  0.96  0.00  0.00  0.00  0.01  0.00
  HS02004807HS02004802    1.00   0.04  0.00  0.00  0.96  0.00  0.00  0.00  0.00  0.00
  YS02001759YS02001757    1.00   0.00  0.00  0.00  1.00  0.00  0.00  0.00  0.16  0.00
  YS02001762YS02001759    1.00   0.00  0.00  0.00  1.00  0.00  0.00  0.00  0.03  0.00
  YS02001765YS02001762    1.00   0.00  0.00  0.00  1.00  0.00  0.00  0.00  0.14  0.00
  YS02001770YS02001767    1.00   0.00  0.00  0.00  1.00  0.00  0.00  0.00  0.00  0.00
  YS02001774YS02001770    1.00   0.00  0.04  0.00  0.96  0.00  0.00  0.00  0.03  0.00
  YS02001779YS02001774    1.00   0.00  0.00  0.00  1.00  0.00  0.00  0.00  0.18  0.00
  YS02001649YS02001757    1.00   0.00  0.00  0.00  1.00  0.00  0.00  0.00  0.16  0.00
  YS02001767YS02001765    1.00   0.00  0.00  0.00  1.00  0.00  0.00  0.00  0.00  0.00
  YS02006561YS02001783    1.00   0.05  0.00  0.00  0.87  0.08  0.00  0.00  0.59  0.00
  YS02001783YS02001784    1.00   0.00  0.05  0.00  0.95  0.00  0.00  0.00  0.00  0.00
  YS02001784YS02001785    1.00   0.00  0.00  0.00  1.00  0.00  0.00  0.00  0.17  0.00
  YS02001788YS02001790    1.00   0.00  0.00  0.00  0.93  0.07  0.00  0.00  0.19  0.00
  YS02001790YS02001791    1.00   0.00  0.00  0.00  0.89  0.11  0.00  0.00  0.06  0.00
  YS02001791YS02001793    1.00   0.00  0.00  0.00  0.88  0.12  0.00  0.00  0.00  0.00
  YS02001910YS02001907    1.00   0.00  0.00  0.00  0.98  0.00  0.00  0.02  0.12  0.00
  YS02001786YS02001788    1.00   0.00  0.00  0.00  0.93  0.07  0.00  0.00  0.00  0.00
  YS02001915YS02001910    1.00   0.00  0.00  0.00  0.99  0.01  0.00  0.00  0.16  0.00
  YS02001918YS02001915    1.00   0.00  0.01  0.00  0.98  0.01  0.00  0.00  0.59  0.00
  YS02001923YS02001920    1.00   0.00  0.00  0.00  1.00  0.00  0.00  0.00  0.87  0.00
  YS02001926YS02001923    1.00   0.00  0.03  0.00  0.09  0.00  0.88  0.00  0.00  0.00
  YS02001929YS02001926    1.00   0.00  0.04  0.00  0.96  0.00  0.00  0.00  0.85  0.00
  YS02001920YS02001918    1.00   0.00  0.01  0.00  0.99  0.00  0.00  0.00  0.00  0.00
  YS02001629YS02163301    1.00   0.05  0.00  0.00  0.95  0.00  0.00  0.00  0.00  0.00
  YS02001619YS02001622    1.00   0.04  0.00  0.00  0.96  0.00  0.00  0.00  0.00  0.00
  YS02001622YS02001625    1.00   0.04  0.00  0.00  0.96  0.00  0.00  0.00  0.04  0.00
  YS02001625YS02001629    1.00   0.04  0.01  0.00  0.94  0.00  0.01  0.00  0.00  0.00
  YS02163301YS02001633    1.00   0.00  0.05  0.00  0.95  0.00  0.00  0.00  0.00  0.00
  YS02163601YS02164001    1.00   0.00  0.03  0.00  0.97  0.00  0.00  0.00  0.00  0.00
  YS02164001YS02001641    1.00   0.01  0.03  0.00  0.97  0.00  0.00  0.00  0.06  0.00
  YS02001641YS02001644    1.00   0.00  0.01  0.00  0.99  0.00  0.00  0.00  0.00  0.00
  YS02001647YS02001649    1.00   0.00  0.05  0.00  0.95  0.00  0.00  0.00  0.01  0.00
  YS02006553YS02006556    1.00   0.01  0.00  0.00  0.99  0.00  0.00  0.00  0.03  0.00
  YS02006556YS02006558    1.00   0.00  0.00  0.00  1.00  0.00  0.00  0.00  0.00  0.00
  YSB6556YSB1171          1.00   0.03  0.01  0.00  0.96  0.00  0.00  0.00  0.00  0.00
  YS02001907YS02006553    1.00   0.00  0.02  0.00  0.98  0.00  0.00  0.00  0.00  0.00
  YS02006558YS02006561    1.00   0.05  0.00  0.00  0.14  0.80  0.00  0.00  0.51  0.00
  YS02001633YS02163601    1.00   0.00  0.01  0.00  0.99  0.00  0.00  0.00  0.15  0.00
  YS02001644YS02001647    1.00   0.00  0.05  0.00  0.95  0.00  0.00  0.00  0.00  0.00
  YS02001745YS02001748    1.00   0.00  0.00  0.00  0.91  0.01  0.00  0.08  0.04  0.00
  YS02001748YS02001751    1.00   0.00  0.00  0.00  0.98  0.02  0.00  0.00  0.14  0.00
  YS02001751YS02001754    1.00   0.00  0.00  0.00  0.94  0.00  0.00  0.05  0.02  0.00
  YS02001754YS02001757    1.00   0.00  0.00  0.00  0.99  0.01  0.00  0.00  0.18  0.00
  YS02001882YS02001884    1.00   0.04  0.00  0.00  0.95  0.00  0.00  0.00  0.00  0.00
  YS02001884YS02001887    1.00   0.03  0.01  0.00  0.96  0.00  0.00  0.00  0.00  0.00
  YS02001890YS02001895    1.00   0.00  0.04  0.00  0.95  0.00  0.00  0.00  0.00  0.00
  YS02001895YS02001898    1.00   0.05  0.00  0.00  0.95  0.00  0.01  0.00  0.00  0.00
  YS02001898YS02001901    1.00   0.05  0.00  0.00  0.95  0.00  0.00  0.00  0.01  0.00
  YS02001901YS02001904    1.00   0.05  0.00  0.00  0.95  0.00  0.00  0.00  0.00  0.00
  YS02001904YS02001907    1.00   0.00  0.04  0.00  0.95  0.00  0.00  0.00  0.00  0.00
  YS02001887YS02001890    1.00   0.00  0.00  0.00  0.97  0.00  0.02  0.00  0.00  0.00
  YS02001652YS02001649    1.00   0.00  0.00  0.00  1.00  0.00  0.00  0.00  0.16  0.00
  YS02001655YS02001652    1.00   0.00  0.00  0.00  0.95  0.00  0.00  0.05  0.02  0.00
  YS02001658YS02001655    1.00   0.00  0.04  0.00  0.94  0.02  0.00  0.00  0.04  0.00
  YS02001661YS02001658    1.00   0.04  0.00  0.00  0.91  0.05  0.00  0.00  0.04  0.00
  YS02001664YS02001661    1.00   0.04  0.00  0.00  0.87  0.09  0.00  0.00  0.19  0.00
  YSB1154YSB6556          1.00   0.04  0.00  0.00  0.96  0.00  0.00  0.00  0.02  0.00
  YSB1174YSB1171          1.00   0.03  0.01  0.00  0.96  0.00  0.00  0.00  0.00  0.00
  YSB1171HS02004479       1.00   0.03  0.00  0.00  0.97  0.00  0.00  0.00  0.10  0.00
  HS02004881HS02006253    1.00   0.03  0.00  0.00  0.93  0.00  0.00  0.04  0.78  0.00
  YS02001793JiankangQianchi    1.00   0.00  0.00  0.00  0.92  0.07  0.00  0.00  0.05  0.00
  YS02001757CaochengTiaoxuchi    1.00   0.00  0.06  0.00  0.92  0.02  0.00  0.00  0.00  0.00
  WSF200WS02003060        1.00   0.00  0.06  0.00  0.91  0.03  0.00  0.00  0.58  0.00
  1                       1.00   0.00  0.00  0.00  0.00  1.00  0.00  0.00  0.66  0.00
  2                       1.00   0.94  0.00  0.00  0.00  0.06  0.00  0.00  0.02  0.00
  3                       1.00   0.93  0.00  0.00  0.00  0.07  0.00  0.00  0.19  0.00
  4                       1.00   1.00  0.00  0.00  0.00  0.00  0.00  0.00  0.00  0.00
  
  
  *************************
  Conduit Surcharge Summary
  *************************
  
  ----------------------------------------------------------------------------
                                                           Hours        Hours 
                         --------- Hours Full --------   Above Full   Capacity
  Conduit                Both Ends  Upstream  Dnstream   Normal Flow   Limited
  ----------------------------------------------------------------------------
  WS02006229WS02006228        1.36      1.39      1.36      1.75         1.36
  WS02006256WS02006235        6.34      6.34      6.91      0.38         0.01
  WS02006249WS02006248        0.01      0.01      0.01      6.12         0.01
  WS02006247WS02006245        0.01      0.01      0.01      6.13         0.01
  WS02006243WS02006242        0.01      0.01      0.09      0.01         0.01
  WS02006242WS02006240        0.01      0.01      0.19      0.61         0.01
  WS02006240WS02006239        0.01      0.01      0.08      0.01         0.01
  WS02006239WS02006238        0.21      0.21      0.35      0.01         0.01
  WS02006238WS02006235        0.26      0.26      0.50      0.01         0.01
  WS02006235WS02006234        0.11      0.11      0.20      6.35         0.01
  WS02006234WS02006232        0.17      0.17      0.80      0.01         0.01
  WS02006232WS02006231        0.01      0.01      0.80      0.01         0.01
  WS02006231WS02006230        0.01      0.01      0.03      6.35         0.01
  WS02006230WS02006229        1.54      1.60      1.54      6.43         1.54
  WS02006228WS02006109        1.38      1.47      1.38      3.19         1.38
  WS02006112WS02006115        0.01      0.01      0.86      0.01         0.01
  WS02006111WS02006112        0.01      0.01      1.84      0.01         0.01
  WS02006110WS02006113        0.01      0.01      1.42      0.01         0.01
  WS02006109WS02006110        0.59      0.59      1.47      0.59         0.01
  WS02004405WS02004406        0.01      0.01      0.01      0.76         0.01
  WS02004404WS02004405        0.01      0.01      0.01      6.25         0.01
  WS02003072WS02003073        0.01      0.01      0.01      6.01         0.01
  YS02001759YS02001757        5.98      5.98      6.04      0.01         0.01
  YS02001762YS02001759        5.96      5.96      5.98      0.01         0.01
  YS02001765YS02001762        5.94      5.94      5.96      0.01         0.01
  YS02001770YS02001767        5.92      5.92      5.92      0.08         0.77
  YS02001774YS02001770        5.89      5.89      5.95      0.01         0.01
  YS02001779YS02001774        5.71      5.71      5.95      0.01         0.01
  YS02001649YS02001757        5.96      5.96      6.04      0.01         0.01
  YS02001767YS02001765        5.92      5.92      5.94      0.01         0.01
  YS02006561YS02001783        0.01      0.01      1.37      0.01         0.01
  YS02001783YS02001784        1.37      1.37      1.44      0.88         0.82
  YS02001784YS02001785        1.38      1.44      1.38      2.03         1.38
  YS02001788YS02001790        1.36      1.36      5.73      0.01         0.01
  YS02001790YS02001791        5.73      5.73      5.74      0.01         0.01
  YS02001791YS02001793        5.74      5.74      5.76      0.01         0.01
  YS02001910YS02001907        0.83      0.83      1.44      0.01         0.01
  YS02001786YS02001788        1.36      1.38      1.36      1.61         1.36
  YS02001915YS02001910        0.45      0.45      0.83      0.01         0.01
  YS02001918YS02001915        0.01      0.01      0.45      0.01         0.01
  YS02001629YS02163301        5.86      5.86      5.91      0.01         0.01
  YS02001619YS02001622        5.54      5.54      5.59      0.01         0.01
  YS02001622YS02001625        5.59      5.59      5.76      0.01         0.01
  YS02001625YS02001629        5.54      5.54      5.76      0.01         0.01
  YS02163301YS02001633        5.91      5.91      5.95      0.01         0.01
  YS02163601YS02164001        5.94      5.94      5.96      0.01         0.01
  YS02164001YS02001641        5.94      5.94      5.95      0.01         0.02
  YS02001641YS02001644        5.95      5.95      5.95      1.05         1.21
  YS02001647YS02001649        5.75      5.75      5.96      0.01         0.01
  YS02006553YS02006556        1.12      1.12      1.50      0.01         0.01
  YS02006556YS02006558        1.31      1.31      1.57      0.01         0.01
  YS02001907YS02006553        2.04      2.04      2.24      0.01         0.01
  YS02006558YS02006561        0.65      1.07      0.65      1.89         0.65
  YS02001633YS02163601        5.93      5.93      5.96      0.01         0.01
  YS02001644YS02001647        5.75      5.75      5.95      0.01         0.01
  YS02001745YS02001748        0.01      0.01      5.26      0.01         0.01
  YS02001748YS02001751        5.34      5.34      5.51      0.01         0.01
  YS02001751YS02001754        5.51      5.51      5.73      0.01         0.01
  YS02001754YS02001757        5.75      5.75      6.04      0.01         0.01
  YS02001882YS02001884        0.48      0.48      0.56      0.01         0.01
  YS02001884YS02001887        0.66      0.66      0.71      0.01         0.01
  YS02001890YS02001895        0.41      0.41      0.86      0.01         0.01
  YS02001895YS02001898        0.37      0.37      0.41      0.01         0.01
  YS02001898YS02001901        0.43      0.43      0.65      0.01         0.01
  YS02001901YS02001904        0.61      0.61      0.65      0.01         0.01
  YS02001904YS02001907        0.61      0.61      1.52      0.01         0.01
  YS02001887YS02001890        0.76      0.76      0.80      0.01         0.01
  YS02001652YS02001649        5.76      5.76      5.96      0.01         0.01
  YS02001655YS02001652        5.58      5.58      5.75      0.01         0.01
  YS02001658YS02001655        5.29      5.29      5.58      0.01         0.01
  YS02001661YS02001658        0.20      0.20      5.29      0.01         0.01
  YS02001664YS02001661        0.01      0.01      1.15      0.01         0.01
  YS02001793JiankangQianchi        5.76      5.76      6.00      0.01         0.01
  YS02001757CaochengTiaoxuchi        5.17      5.17      6.04      0.01         0.01
  
  
  ***************
  Pumping Summary
  ***************
  
  ---------------------------------------------------------------------------------------------------------
                                                  Min       Avg       Max     Total     Power    % Time Off
                        Percent   Number of      Flow      Flow      Flow    Volume     Usage    Pump Curve
  Pump                 Utilized   Start-Ups       LPS       LPS       LPS  10^6 ltr     Kw-hr    Low   High
  ---------------------------------------------------------------------------------------------------------
  CC-Pump-1               76.59           1      0.00    197.20    200.00     4.260      4.23    0.0    5.7
  CC-Pump-2                4.58           1      0.00    136.52    200.00     0.171      0.73    0.0  100.0
  JK-Pump-1               25.53           1      0.00    159.92    300.00     0.482      8.57    0.0    0.0
  JK-Pump-2                0.00           0      0.00      0.00      0.00     0.000      0.00    0.0    0.0
  XR-Pump-1              100.00           1      0.00     95.00     95.00     2.679     17.22    0.0    0.0
  XR-Pump-2                0.00           0      0.00      0.00      0.00     0.000      0.00    0.0    0.0
  XR-Pump-3              100.00           1      0.00     95.00     95.00     2.679     17.22    0.0    0.0
  XR-Pump-4               76.59           1      0.00     93.67     95.00     2.023     10.29    0.0    0.0
  

  Analysis begun on:  Tue Dec 21 01:27:12 2021
  Analysis ended on:  Tue Dec 21 01:27:17 2021
  Total elapsed time: 00:00:05