
  EPA STORM WATER MANAGEMENT MODEL - VERSION 5.1 (Build 5.3.0.dev0)
  --------------------------------------------------------------

  WARNING 04: minimum elevation drop used for Conduit WS02004404WS02004405
  WARNING 03: negative offset ignored for Link YS02001904YS02001907
  
  *********************************************************
  NOTE: The summary statistics displayed in this report are
  based on results found at every computational time step,  
  not just on results from each reporting time step.
  *********************************************************
  
  ****************
  Analysis Options
  ****************
  Flow Units ............... LPS
  Process Models:
    Rainfall/Runoff ........ YES
    RDII ................... NO
    Snowmelt ............... NO
    Groundwater ............ NO
    Flow Routing ........... YES
    Ponding Allowed ........ NO
    Water Quality .......... NO
  Infiltration Method ...... HORTON
  Flow Routing Method ...... DYNWAVE
  Surcharge Method ......... EXTRAN
  Starting Date ............ 08/28/2015 08:00:00
  Ending Date .............. 08/28/2015 15:50:00
  Antecedent Dry Days ...... 8.0
  Report Time Step ......... 00:01:00
  Wet Time Step ............ 00:01:00
  Dry Time Step ............ 00:01:00
  Routing Time Step ........ 5.00 sec
  Variable Time Step ....... YES
  Maximum Trials ........... 8
  Number of Threads ........ 4
  Head Tolerance ........... 0.001500 m
  
  
  **************************        Volume         Depth
  Runoff Quantity Continuity     hectare-m            mm
  **************************     ---------       -------
  Total Precipitation ......         3.868         8.469
  Evaporation Loss .........         0.000         0.000
  Infiltration Loss ........         0.985         2.157
  Surface Runoff ...........         1.916         4.194
  Final Storage ............         0.968         2.119
  Continuity Error (%) .....        -0.017
  
  
  **************************        Volume        Volume
  Flow Routing Continuity        hectare-m      10^6 ltr
  **************************     ---------     ---------
  Dry Weather Inflow .......         0.616         6.165
  Wet Weather Inflow .......         1.915        19.148
  Groundwater Inflow .......         0.000         0.000
  RDII Inflow ..............         0.000         0.000
  External Inflow ..........         0.102         1.024
  External Outflow .........         1.863        18.628
  Flooding Loss ............         0.315         3.154
  Evaporation Loss .........         0.000         0.000
  Exfiltration Loss ........         0.000         0.000
  Initial Stored Volume ....         0.076         0.761
  Final Stored Volume ......         0.616         6.162
  Continuity Error (%) .....        -3.127
  
  
  *************************
  Highest Continuity Errors
  *************************
  Node YS02001774 (42.59%)
  Node HS02004842 (20.90%)
  Node YS02001884 (14.08%)
  Node JK-storage (-12.84%)
  Node YSB1171 (4.66%)
  
  
  ***************************
  Time-Step Critical Elements
  ***************************
  Link WS02006252WS02006251 (55.60%)
  Link 3 (36.62%)
  Link WS02006238WS02006235 (2.05%)
  Link WS02006280WS02006229 (1.65%)
  
  
  ********************************
  Highest Flow Instability Indexes
  ********************************
  Link WS02006113WS02006111 (38)
  Link YS02001774YS02001770 (27)
  Link YS02001779YS02001774 (26)
  Link WS02006111WS02006112 (25)
  Link YS02001619YS02001622 (24)
  
  
  *************************
  Routing Time Step Summary
  *************************
  Minimum Time Step           :     0.03 sec
  Average Time Step           :     0.80 sec
  Maximum Time Step           :     5.00 sec
  Percent in Steady State     :    -0.00
  Average Iterations per Step :     4.00
  Percent Not Converging      :    17.34
  
  
  ***************************
  Subcatchment Runoff Summary
  ***************************
  
  ------------------------------------------------------------------------------------------------------------------------------
                            Total      Total      Total      Total     Imperv       Perv      Total       Total     Peak  Runoff
                           Precip      Runon       Evap      Infil     Runoff     Runoff     Runoff      Runoff   Runoff   Coeff
  Subcatchment                 mm         mm         mm         mm         mm         mm         mm    10^6 ltr      LPS
  ------------------------------------------------------------------------------------------------------------------------------
  sub0                       8.47       0.00       0.00       0.59       6.61       0.00       6.61        0.01     1.03   0.781
  sub1                       8.47       0.00       0.00       0.93       6.28       0.00       6.28        0.04     7.43   0.741
  sub2                       8.47       0.00       0.00       3.13       4.43       0.00       4.43        0.04     7.08   0.523
  sub3                       8.47       0.00       0.00       3.13       4.39       0.00       4.39        0.10    15.91   0.518
  sub4                       8.47       0.00       0.00       0.93       6.13       0.00       6.13        0.13    19.23   0.724
  sub5                       8.47       0.00       0.00       0.59       6.56       0.00       6.56        0.07    13.22   0.775
  sub7                       8.47       0.00       0.00       0.76       6.45       0.00       6.45        0.02     4.04   0.762
  sub8                       8.47       0.00       0.00       0.76       6.44       0.00       6.44        0.04     7.54   0.761
  sub9                       8.47       0.00       0.00       0.76       6.44       0.00       6.44        0.03     5.65   0.760
  sub10                      8.47       0.00       0.00       0.68       6.50       0.00       6.50        0.07    12.87   0.767
  sub11                      8.47       0.00       0.00       0.68       6.52       0.00       6.52        0.08    13.93   0.769
  sub12                      8.47       0.00       0.00       1.10       6.18       0.00       6.18        0.05    10.23   0.730
  sub14                      8.47       0.00       0.00       0.76       6.44       0.00       6.44        0.06    11.15   0.760
  sub15                      8.47       0.00       0.00       2.54       4.95       0.00       4.95        0.09    15.40   0.584
  sub16                      8.47       0.00       0.00       2.79       4.76       0.00       4.76        0.05     9.37   0.561
  sub17                      8.47       0.00       0.00       2.71       4.82       0.00       4.82        0.04     7.75   0.570
  sub22                      8.47       0.00       0.00       3.64       4.04       0.00       4.04        0.26    47.08   0.477
  sub23                      8.47       0.00       0.00       3.13       4.46       0.00       4.46        0.21    39.46   0.527
  sub60                      8.47       0.00       0.00       1.02       4.75       0.00       4.75        1.44   149.28   0.561
  sub61                      8.47       0.00       0.00       1.44       4.95       0.00       4.95        1.53   180.35   0.585
  sub62                      8.47       0.00       0.00       0.68       5.35       0.00       5.35        1.64   187.08   0.631
  sub63                      8.47       0.00       0.00       2.46       4.37       0.00       4.37        1.32   164.01   0.516
  sub64                      8.47       0.00       0.00       1.27       4.55       0.00       4.55        1.38   141.99   0.537
  sub65                      8.47       0.00       0.00       1.10       4.62       0.00       4.62        1.42   144.28   0.545
  sub66                      8.47       0.00       0.00       2.46       3.94       0.00       3.94        1.21   129.20   0.465
  sub67                      8.47       0.00       0.00       0.68       5.75       0.00       5.75        1.78   226.25   0.679
  sub68                      8.47       0.00       0.00       1.19       5.24       0.00       5.24        1.61   196.27   0.618
  sub69                      8.47       0.00       0.00       1.27       5.53       0.00       5.53        1.29   176.57   0.653
  sub70                      8.47       5.64       0.00       4.80       7.11       0.00       7.11        1.63   167.69   0.504
  sub71                      8.47       0.00       0.00       0.68       5.16       0.00       5.16        1.22   132.38   0.610
  sub72                      8.47       0.00       0.00       0.59       3.87       0.00       3.87        0.79    64.98   0.457
  sub73                      8.47       6.92       0.00       5.23       7.51       0.00       7.51        1.76   149.38   0.488
  sub74                      8.47       0.00       0.00       6.35       1.66       0.00       1.66        0.66    93.55   0.196
  
  
  ******************
  Node Depth Summary
  ******************
  
  ---------------------------------------------------------------------------------
                                 Average  Maximum  Maximum  Time of Max    Reported
                                   Depth    Depth      HGL   Occurrence   Max Depth
  Node                 Type       Meters   Meters   Meters  days hr:min      Meters
  ---------------------------------------------------------------------------------
  WS02001211           JUNCTION     0.66     0.78     5.62     0  02:31        0.78
  WS02001212           JUNCTION     0.38     0.50     5.56     0  02:31        0.50
  WS02001213           JUNCTION     0.62     0.75     5.51     0  02:31        0.75
  WS02003069           JUNCTION     0.44     0.58     5.16     0  02:33        0.58
  WS02003072           JUNCTION     0.50     0.63     5.01     0  02:33        0.63
  WS02003073           JUNCTION     0.30     0.39     4.45     0  02:34        0.39
  WS02003060           JUNCTION     0.39     0.51     5.44     0  02:32        0.51
  WS02003066           JUNCTION     0.24     0.30     5.85     0  02:24        0.30
  WS02003059           JUNCTION     0.68     0.80     5.49     0  02:32        0.80
  WS02003067           JUNCTION     0.58     0.70     6.02     0  02:24        0.70
  WS02004401           JUNCTION     0.68     0.85     6.85     0  02:22        0.85
  WS02004402           JUNCTION     0.71     0.88     6.84     0  02:22        0.88
  WS02004403           JUNCTION     0.73     0.89     6.82     0  02:19        0.89
  WS02004404           JUNCTION     0.81     0.97     6.82     0  02:19        0.97
  WS02004406           JUNCTION     0.81     0.96     6.79     0  02:20        0.96
  WS02004409           JUNCTION     0.50     0.67     6.44     0  02:23        0.67
  WS02004410           JUNCTION     0.52     0.68     6.40     0  02:23        0.68
  WS02004411           JUNCTION     0.54     0.69     6.37     0  02:24        0.69
  WS02004412           JUNCTION     0.55     0.70     6.34     0  02:23        0.70
  WS02004413           JUNCTION     0.71     0.86     6.33     0  02:24        0.86
  WS02004405           JUNCTION     0.80     0.96     6.81     0  02:22        0.96
  WS02006109           JUNCTION     0.76     0.97     7.59     0  02:18        0.97
  WS02006110           JUNCTION     0.75     0.92     7.51     0  02:18        0.92
  WS02006111           JUNCTION     0.22     0.29     6.99     0  02:18        0.29
  WS02006112           JUNCTION     0.85     1.05     6.94     0  02:23        1.05
  WS02006113           JUNCTION     0.35     0.45     7.35     0  02:19        0.45
  WS02006115           JUNCTION     0.57     0.76     6.89     0  02:21        0.75
  WS02006116           JUNCTION     0.65     0.83     6.87     0  02:22        0.83
  WS02006230           JUNCTION     0.73     1.01     7.76     0  02:16        1.01
  WS02006231           JUNCTION     0.48     0.68     7.81     0  02:12        0.68
  WS02006232           JUNCTION     0.62     0.81     7.85     0  02:12        0.81
  WS02006234           JUNCTION     0.54     0.75     7.91     0  02:12        0.75
  WS02006235           JUNCTION     0.57     0.79     7.95     0  02:11        0.79
  WS02006238           JUNCTION     0.60     0.82     7.96     0  02:11        0.81
  WS02006240           JUNCTION     0.49     0.74     8.03     0  02:06        0.74
  WS02006242           JUNCTION     0.54     0.81     8.08     0  02:06        0.81
  WS02006243           JUNCTION     0.42     0.70     8.12     0  02:08        0.70
  WS02006245           JUNCTION     0.40     0.67     8.15     0  02:08        0.67
  WS02006247           JUNCTION     0.42     0.68     8.18     0  02:08        0.68
  WS02006248           JUNCTION     0.37     0.61     8.20     0  02:08        0.61
  WS02006249           JUNCTION     0.40     0.62     8.22     0  02:08        0.62
  WS02006239           JUNCTION     0.55     0.79     8.00     0  02:06        0.79
  WS02006251           JUNCTION     0.39     0.65     8.32     0  02:10        0.65
  WS02006252           JUNCTION     0.34     0.59     8.83     0  03:46        0.59
  WS02006253           JUNCTION     0.42     0.68     8.32     0  02:09        0.68
  WS02006256           JUNCTION     1.05     1.20     8.13     0  04:50        1.20
  WS02004138           JUNCTION     0.15     0.20     7.45     0  00:00        0.19
  WS02004407           JUNCTION     0.23     0.30     6.61     0  02:20        0.30
  WS02006228           JUNCTION     0.76     1.01     7.66     0  02:19        1.00
  WS02006229           JUNCTION     0.74     1.00     7.70     0  02:18        1.00
  WS02006280           JUNCTION     0.06     0.14     8.41     0  02:27        0.14
  WS02006284           JUNCTION     0.36     0.48     8.88     0  02:27        0.48
  WS02006287           JUNCTION     0.09     0.21     9.16     0  02:27        0.21
  WSF200               JUNCTION     0.22     0.31     5.54     0  02:23        0.31
  HS02004901           JUNCTION     0.12     0.22    10.04     0  02:25        0.22
  HS02004881           JUNCTION     0.01     0.02     9.05     0  02:26        0.02
  HS02004876           JUNCTION     0.04     0.10     9.13     0  02:25        0.10
  HS02004870           JUNCTION     0.01     0.04     9.33     0  02:26        0.04
  HS02004862           JUNCTION     0.02     0.05     9.43     0  02:27        0.05
  HS02004856           JUNCTION     0.08     0.11     9.53     0  02:26        0.11
  HS02004852           JUNCTION     0.01     0.03     9.54     0  02:27        0.03
  HS02004848           JUNCTION     0.01     0.03     9.63     0  02:26        0.03
  HS02004842           JUNCTION     0.33     0.36     9.63     0  02:26        0.36
  HS02004837           JUNCTION     0.03     0.05     9.63     0  02:26        0.05
  HS02004830           JUNCTION     0.04     0.06     9.53     0  02:26        0.06
  HS02004824           JUNCTION     0.02     0.04     9.45     0  02:27        0.04
  HS02004817           JUNCTION     0.43     0.53     9.37     0  02:27        0.53
  HS02004807           JUNCTION     0.12     0.20     9.37     0  02:27        0.20
  HS02004802           JUNCTION     0.16     0.24     9.37     0  02:27        0.24
  HS02004799           JUNCTION     0.11     0.25     9.46     0  02:25        0.25
  HS02004792           JUNCTION     0.03     0.09     9.62     0  02:25        0.09
  HS02004788           JUNCTION     0.02     0.07     9.97     0  02:26        0.07
  HS02004785           JUNCTION     0.04     0.13    10.03     0  02:25        0.13
  HS02004777           JUNCTION     0.14     0.24    10.04     0  02:25        0.24
  HS02004770           JUNCTION     0.11     0.21    10.04     0  02:25        0.21
  HS02004480           JUNCTION     0.07     0.19     9.43     0  02:26        0.19
  HS02004479           JUNCTION     0.11     0.23     9.43     0  02:25        0.23
  HS02004478           JUNCTION     0.06     0.12     9.35     0  02:26        0.12
  YS02001745           JUNCTION     0.63     0.85     8.37     0  04:01        0.85
  YS02001748           JUNCTION     1.00     1.62     8.70     0  03:12        1.29
  YS02001751           JUNCTION     1.19     1.68     8.56     0  03:12        1.49
  YS02001754           JUNCTION     1.44     1.80     8.40     0  04:01        1.77
  YS02001762           JUNCTION     1.64     2.02     8.42     0  04:01        1.98
  YS02001765           JUNCTION     1.59     1.96     8.41     0  04:01        1.93
  YS02001767           JUNCTION     1.56     1.92     8.41     0  03:46        1.89
  YS02001770           JUNCTION     1.55     1.90     8.40     0  03:57        1.88
  YS02001774           JUNCTION     1.62     1.97     8.39     0  03:53        1.96
  YS02001779           JUNCTION     1.37     1.68     8.37     0  03:35        1.68
  YS02001882           JUNCTION     0.35     0.63     7.35     0  02:59        0.63
  YS02001884           JUNCTION     0.44     0.73     7.35     0  03:00        0.73
  YS02001759           JUNCTION     1.67     2.05     8.42     0  04:01        2.02
  YS02001887           JUNCTION     0.52     0.81     7.35     0  03:02        0.81
  YS02001890           JUNCTION     0.55     0.84     7.34     0  02:59        0.84
  YS02001898           JUNCTION     0.32     0.60     7.33     0  03:01        0.60
  YS02001901           JUNCTION     0.44     0.72     7.33     0  03:01        0.71
  YS02001904           JUNCTION     0.42     0.70     7.33     0  03:00        0.69
  YS02001907           JUNCTION     0.75     1.05     7.34     0  03:06        1.04
  YS02001910           JUNCTION     0.54     0.82     7.33     0  03:03        0.82
  YS02001915           JUNCTION     0.34     0.61     7.32     0  03:00        0.61
  YS02001918           JUNCTION     0.11     0.25     7.32     0  03:03        0.25
  YS02001619           JUNCTION     1.15     1.61     8.54     0  03:07        1.46
  YS02001629           JUNCTION     1.50     1.85     8.40     0  03:11        1.83
  YS02001641           JUNCTION     1.61     1.94     8.38     0  03:40        1.92
  YS02001644           JUNCTION     1.61     1.92     8.35     0  03:32        1.92
  YS02001652           JUNCTION     1.45     2.09     8.69     0  03:06        1.84
  YS02001655           JUNCTION     1.22     2.20     9.05     0  03:03        1.62
  YS02001920           JUNCTION     0.21     0.33     7.34     0  03:02        0.32
  YS02001923           JUNCTION     0.08     0.12     7.38     0  03:02        0.12
  YS02001926           JUNCTION     0.17     0.23     7.67     0  03:02        0.23
  YS02001929           JUNCTION     0.08     0.12     7.81     0  03:01        0.12
  YS02001658           JUNCTION     0.95     2.30     9.44     0  03:06        1.37
  YS02001661           JUNCTION     0.73     1.94     9.34     0  03:44        1.14
  YS02001664           JUNCTION     0.31     0.57     8.49     0  03:44        0.56
  YS02001622           JUNCTION     1.17     1.62     8.52     0  03:10        1.48
  YS02001633           JUNCTION     1.60     1.95     8.40     0  03:17        1.92
  YS02001649           JUNCTION     1.65     2.05     8.44     0  03:40        2.01
  YS02001757           JUNCTION     1.77     2.16     8.42     0  04:01        2.12
  YS02001895           JUNCTION     0.32     0.59     7.34     0  03:02        0.59
  YS02001625           JUNCTION     1.46     1.78     8.38     0  03:09        1.78
  YS02163301           JUNCTION     1.54     1.90     8.42     0  03:14        1.86
  YS02163601           JUNCTION     1.65     1.99     8.39     0  03:40        1.97
  YS02164001           JUNCTION     1.59     1.92     8.38     0  03:40        1.90
  YS02001647           JUNCTION     1.44     1.80     8.41     0  03:52        1.77
  YSB1154              JUNCTION     0.25     0.38     9.43     0  02:26        0.38
  YSB6556              JUNCTION     0.14     0.26     9.43     0  02:26        0.26
  YSB1174              JUNCTION     0.20     0.32     9.43     0  02:26        0.32
  YSB1171              JUNCTION     0.40     0.53     9.43     0  02:25        0.53
  YS02006553           JUNCTION     0.75     1.07     7.35     0  03:06        1.05
  YS02006561           JUNCTION     0.17     0.38     7.04     0  02:56        0.38
  YS02006556           JUNCTION     0.72     1.02     7.33     0  03:00        1.01
  YS02006558           JUNCTION     0.77     1.06     7.33     0  03:00        1.04
  YS02001783           JUNCTION     0.35     1.12     7.26     0  02:55        0.93
  YS02001784           JUNCTION     0.39     1.24     7.31     0  02:55        0.93
  YS02001786           JUNCTION     0.36     1.33     7.36     0  02:55        0.89
  YS02001788           JUNCTION     0.32     1.33     7.30     0  02:55        0.85
  YS02001790           JUNCTION     0.44     1.80     7.44     0  02:53        1.12
  YS02001791           JUNCTION     0.44     1.53     7.00     0  02:53        1.20
  YS02001793           JUNCTION     0.60     2.61     7.44     0  02:50        1.79
  WS02004139           JUNCTION     0.60     0.73     5.64     0  02:30        0.73
  WSC                  OUTFALL      0.30     0.39     1.06     0  02:34        0.39
  3                    OUTFALL      0.09     0.20     6.20     0  05:02        0.20
  4                    OUTFALL      0.01     0.12     7.12     0  02:08        0.12
  5                    OUTFALL      0.00     0.00     5.00     0  00:00        0.00
  JK-storage           STORAGE      2.15     5.80     6.60     0  02:54        5.80
  CC-storage           STORAGE      1.01     1.37     8.37     0  05:12        1.36
  XR-storage           STORAGE      5.93     7.72     5.72     0  04:26        7.72
  
  
  *******************
  Node Inflow Summary
  *******************
  
  -------------------------------------------------------------------------------------------------
                                  Maximum  Maximum                  Lateral       Total        Flow
                                  Lateral    Total  Time of Max      Inflow      Inflow     Balance
                                   Inflow   Inflow   Occurrence      Volume      Volume       Error
  Node                 Type           LPS      LPS  days hr:min    10^6 ltr    10^6 ltr     Percent
  -------------------------------------------------------------------------------------------------
  WS02001211           JUNCTION      7.35   386.19     0  02:09       0.207        7.02       0.412
  WS02001212           JUNCTION      0.00   384.33     0  02:08           0        6.99       0.255
  WS02001213           JUNCTION      0.00   383.13     0  00:11           0        6.97       0.331
  WS02003069           JUNCTION      0.32   920.90     0  02:32     0.00902        15.1       0.197
  WS02003072           JUNCTION      0.00   920.50     0  02:33           0          15       0.245
  WS02003073           JUNCTION      1.82   922.07     0  02:33      0.0514        15.1       0.276
  WS02003060           JUNCTION     16.53   920.77     0  02:32       0.466        15.1       0.186
  WS02003066           JUNCTION      0.00   541.05     0  02:24           0        7.72       0.063
  WS02003059           JUNCTION      0.00   380.41     0  00:11           0        6.95       0.495
  WS02003067           JUNCTION      0.00   541.03     0  02:24           0        7.73       0.130
  WS02004401           JUNCTION      0.00   542.51     0  02:19           0        7.98       0.282
  WS02004402           JUNCTION      0.00   542.30     0  02:19           0        7.95       0.265
  WS02004403           JUNCTION      0.00   541.84     0  02:19           0        7.93       0.240
  WS02004404           JUNCTION      0.16   541.84     0  02:19     0.00457        7.92       0.180
  WS02004406           JUNCTION      0.00   542.05     0  02:19           0        7.88       0.439
  WS02004409           JUNCTION      0.00   541.37     0  02:20           0        7.84       0.231
  WS02004410           JUNCTION      0.00   541.19     0  02:23           0        7.82       0.260
  WS02004411           JUNCTION      0.00   541.18     0  02:23           0         7.8       0.265
  WS02004412           JUNCTION      0.00   541.07     0  02:24           0        7.78       0.284
  WS02004413           JUNCTION      0.00   541.09     0  02:24           0        7.76       0.415
  WS02004405           JUNCTION      0.04   541.97     0  02:19     0.00107        7.91       0.268
  WS02006109           JUNCTION      1.23   534.14     0  02:19      0.0347        8.06       0.273
  WS02006110           JUNCTION      0.00   534.14     0  02:19           0        8.04       0.250
  WS02006111           JUNCTION      0.00   555.41     0  02:20           0        8.01       0.057
  WS02006112           JUNCTION      7.75   547.07     0  02:18      0.0414        8.05       0.372
  WS02006113           JUNCTION      0.00   534.62     0  02:18           0        8.02       0.126
  WS02006115           JUNCTION      0.00   545.94     0  02:18           0        8.02       0.267
  WS02006116           JUNCTION      0.00   543.45     0  02:18           0           8       0.252
  WS02006230           JUNCTION     10.28   392.98     0  03:51        0.29        6.76       0.187
  WS02006231           JUNCTION      0.00   382.57     0  07:14           0        6.48       0.190
  WS02006232           JUNCTION      0.00   382.55     0  03:51           0         6.5       0.252
  WS02006234           JUNCTION      0.00   382.94     0  07:32           0         6.5       0.127
  WS02006235           JUNCTION      0.00   383.71     0  07:31           0        6.55       0.164
  WS02006238           JUNCTION      0.00   311.67     0  07:12           0        4.39       0.177
  WS02006240           JUNCTION      0.00   321.11     0  02:03           0        4.39       0.272
  WS02006242           JUNCTION      0.00   336.06     0  02:03           0        4.39       0.332
  WS02006243           JUNCTION      0.00   349.84     0  02:02           0        4.38       0.091
  WS02006245           JUNCTION      0.00   357.82     0  02:02           0        4.39       0.224
  WS02006247           JUNCTION      0.00   364.18     0  02:02           0         4.4       0.158
  WS02006248           JUNCTION      0.00   369.83     0  02:02           0         4.4       0.085
  WS02006249           JUNCTION      0.00   433.23     0  02:10           0        4.65       0.235
  WS02006239           JUNCTION      0.00   312.73     0  07:11           0        4.39       0.268
  WS02006251           JUNCTION      0.08   433.20     0  02:10     0.00217        4.67       0.190
  WS02006252           JUNCTION      0.00   400.00     0  02:01           0        4.43       0.010
  WS02006253           JUNCTION      1.03    41.74     0  02:26     0.00535       0.245       1.654
  WS02006256           JUNCTION      0.00   600.00     0  04:50           0        5.56       0.052
  WS02004138           JUNCTION      0.00   380.00     0  00:00           0        6.84       0.076
  WS02004407           JUNCTION      0.00   541.64     0  02:20           0        7.85       0.102
  WS02006228           JUNCTION      0.00   532.91     0  02:19           0        8.04       0.191
  WS02006229           JUNCTION      0.00   532.91     0  02:19           0        8.06       0.147
  WS02006280           JUNCTION      0.00   204.81     0  02:27           0        1.31       0.005
  WS02006284           JUNCTION      0.10   204.80     0  02:27      0.0027        1.31       0.087
  WS02006287           JUNCTION      0.00   204.70     0  02:27           0        1.31       0.053
  WSF200               JUNCTION      0.00   541.07     0  02:24           0        7.71       0.066
  HS02004901           JUNCTION      9.37     9.37     0  02:23      0.0498      0.0501       3.647
  HS02004881           JUNCTION      4.04    40.76     0  02:26      0.0217        0.23       0.097
  HS02004876           JUNCTION      7.43    36.75     0  02:26      0.0417       0.209       0.259
  HS02004870           JUNCTION      7.54    29.42     0  02:26      0.0411       0.167       0.066
  HS02004862           JUNCTION      7.28    22.06     0  02:26      0.0469       0.126       0.136
  HS02004856           JUNCTION      5.65    14.84     0  02:26       0.031      0.0805       1.827
  HS02004852           JUNCTION      0.00     9.33     0  02:26           0      0.0496       0.109
  HS02004848           JUNCTION     15.91    15.91     0  02:26      0.0988      0.0988       0.047
  HS02004842           JUNCTION      0.00     6.79     0  02:52           0      0.0622      26.415
  HS02004837           JUNCTION     19.22    25.66     0  02:25       0.251         0.3       0.272
  HS02004830           JUNCTION      0.15    25.80     0  02:26     0.00423        0.29       0.427
  HS02004824           JUNCTION     19.28    44.91     0  02:27       0.129       0.418       0.129
  HS02004817           JUNCTION      0.60    45.51     0  02:27      0.0169       0.435       3.988
  HS02004807           JUNCTION     13.93    58.94     0  02:27      0.0757       0.494       0.884
  HS02004802           JUNCTION      0.00    59.00     0  02:28           0       0.491       0.816
  HS02004799           JUNCTION     11.15   123.20     0  02:25      0.0613       0.713       0.360
  HS02004792           JUNCTION     47.36   112.13     0  02:24       0.263       0.652       0.064
  HS02004788           JUNCTION     17.07    65.26     0  02:25       0.132        0.39       0.101
  HS02004785           JUNCTION      0.15    48.39     0  02:25     0.00423       0.259       0.188
  HS02004777           JUNCTION      0.03    48.40     0  02:24    0.000846        0.26       2.037
  HS02004770           JUNCTION     39.46    48.64     0  02:23       0.213       0.261       1.203
  HS02004480           JUNCTION      0.00   146.07     0  02:25           0       0.837       0.127
  HS02004479           JUNCTION      0.00    23.10     0  02:27           0       0.137       0.537
  HS02004478           JUNCTION      0.00   204.69     0  02:26           0        1.31       0.032
  YS02001745           JUNCTION    149.28   352.95     0  03:11        1.44        1.46       0.656
  YS02001748           JUNCTION      0.04   476.96     0  03:12     0.00127        1.45       1.557
  YS02001751           JUNCTION      0.01   283.71     0  02:56     0.00031        1.41       1.665
  YS02001754           JUNCTION      0.26   215.33     0  02:55     0.00733        1.39       1.822
  YS02001762           JUNCTION      0.00   201.84     0  03:01           0        1.56       1.361
  YS02001765           JUNCTION      0.00   199.68     0  03:01           0        1.56       1.588
  YS02001767           JUNCTION      0.54   198.39     0  02:57      0.0151        1.59       2.319
  YS02001770           JUNCTION    187.24   191.62     0  03:01        1.65        1.65       1.965
  YS02001774           JUNCTION      0.00    32.81     0  01:57           0      0.0593      74.185
  YS02001779           JUNCTION      0.01    22.81     0  02:51    0.000141      0.0272     129.054
  YS02001882           JUNCTION      0.00    13.47     0  02:58           0       0.012      19.360
  YS02001884           JUNCTION      0.00    20.83     0  03:09           0      0.0388      16.386
  YS02001759           JUNCTION    180.39   381.73     0  03:01        1.53        3.06       0.756
  YS02001887           JUNCTION    226.70   237.98     0  03:00        1.79        1.81       0.433
  YS02001890           JUNCTION      0.00   241.64     0  03:00           0        1.77       0.481
  YS02001898           JUNCTION      0.00   240.88     0  02:59           0        1.76       0.154
  YS02001901           JUNCTION      0.00   240.09     0  03:05           0        1.76       0.352
  YS02001904           JUNCTION      0.00   234.08     0  03:02           0        1.75       0.325
  YS02001907           JUNCTION      0.00   459.39     0  03:06           0        3.82       0.608
  YS02001910           JUNCTION      0.00   215.01     0  03:06           0        2.08       0.528
  YS02001915           JUNCTION    132.40   210.51     0  03:00        1.22        2.08       0.253
  YS02001918           JUNCTION      0.00    72.63     0  03:00           0       0.866       0.176
  YS02001619           JUNCTION    129.20   129.20     0  03:01        1.21        1.21       1.008
  YS02001629           JUNCTION      0.00   212.43     0  02:53           0        1.12       2.601
  YS02001641           JUNCTION      0.00   310.93     0  03:01           0        2.44       0.875
  YS02001644           JUNCTION    142.03   453.15     0  03:01        1.38        4.16       0.633
  YS02001652           JUNCTION      0.00   245.05     0  03:03           0        1.27       1.919
  YS02001655           JUNCTION      0.15   359.48     0  02:54     0.00434         1.3       1.784
  YS02001920           JUNCTION      2.87    67.64     0  03:02      0.0809       0.868       0.287
  YS02001923           JUNCTION      0.04    64.78     0  03:02     0.00106       0.788       0.052
  YS02001926           JUNCTION      0.05    64.97     0  03:01     0.00147       0.789       0.356
  YS02001929           JUNCTION     64.98    64.98     0  03:01       0.788       0.788       0.051
  YS02001658           JUNCTION      0.00   588.95     0  03:04           0        1.38       1.411
  YS02001661           JUNCTION      0.00   485.32     0  03:40           0        2.05       0.291
  YS02001664           JUNCTION    164.01   396.68     0  03:39        1.32           2       0.225
  YS02001622           JUNCTION      0.00   163.00     0  02:54           0        1.19       2.713
  YS02001633           JUNCTION    144.48   312.00     0  03:00        1.43         2.5       1.308
  YS02001649           JUNCTION      0.00   619.09     0  03:03           0        3.99       0.933
  YS02001757           JUNCTION      0.00  1118.14     0  03:02           0        7.96       1.169
  YS02001895           JUNCTION      0.00   235.85     0  03:02           0        1.76       0.240
  YS02001625           JUNCTION      0.00   212.45     0  02:53           0        1.16       3.455
  YS02163301           JUNCTION      0.00   168.18     0  03:00           0         1.1       2.242
  YS02163601           JUNCTION      0.11   311.40     0  03:00      0.0031        2.47       1.236
  YS02164001           JUNCTION      0.00   310.32     0  03:00           0        2.45       0.834
  YS02001647           JUNCTION      0.00   454.15     0  03:01           0        2.96       0.968
  YSB1154              JUNCTION     13.22    13.22     0  02:24      0.0743      0.0752       1.964
  YSB6556              JUNCTION      0.00    13.14     0  02:25           0      0.0759       1.671
  YSB1174              JUNCTION     10.23    10.23     0  02:22       0.054      0.0546       2.413
  YSB1171              JUNCTION      0.00    23.08     0  02:25           0       0.136       4.884
  YS02006553           JUNCTION      0.00   445.78     0  03:04           0        3.81       0.391
  YS02006561           JUNCTION      0.00   672.14     0  03:02           0        5.39       0.004
  YS02006556           JUNCTION      0.00   445.39     0  03:04           0        3.81       0.282
  YS02006558           JUNCTION    197.15   657.95     0  03:00        1.63        5.42       0.097
  YS02001783           JUNCTION      0.00   633.77     0  03:04           0        5.39       0.032
  YS02001784           JUNCTION      1.06   632.38     0  03:04      0.0299        5.42       0.057
  YS02001786           JUNCTION      0.06   632.31     0  03:04     0.00159        5.42       0.053
  YS02001788           JUNCTION      0.07   631.65     0  03:05       0.002        5.42       0.029
  YS02001790           JUNCTION      0.15   632.35     0  03:04     0.00437        5.42       0.038
  YS02001791           JUNCTION      0.00   632.47     0  03:04           0        5.42       0.018
  YS02001793           JUNCTION      0.00   679.20     0  02:51           0        5.42      -0.001
  WS02004139           JUNCTION      0.32   393.28     0  00:00     0.00905        6.84       0.504
  WSC                  OUTFALL       0.00   921.75     0  02:34           0          15       0.000
  3                    OUTFALL       0.00   480.45     0  05:02           0        3.37       0.000
  4                    OUTFALL       0.00   147.10     0  02:08           0        0.24       0.000
  5                    OUTFALL       0.00     0.00     0  00:00           0           0       0.000 ltr
  JK-storage           STORAGE       0.00   989.62     0  02:49           0        5.57     -11.376
  CC-storage           STORAGE       0.00  1118.61     0  03:02           0         7.7      -0.674
  XR-storage           STORAGE     442.93   442.93     0  03:01        8.07        8.67      -0.000
  
  
  **********************
  Node Surcharge Summary
  **********************
  
  Surcharging occurs when water rises above the top of the highest conduit.
  ---------------------------------------------------------------------
                                               Max. Height   Min. Depth
                                   Hours       Above Crown    Below Rim
  Node                 Type      Surcharged         Meters       Meters
  ---------------------------------------------------------------------
  WS02006109           JUNCTION        1.63          0.148        1.672
  WS02006110           JUNCTION        0.34          0.010        1.840
  WS02006112           JUNCTION        0.42          0.055        1.625
  WS02006232           JUNCTION        1.19          0.113        1.367
  WS02006234           JUNCTION        0.30          0.034        1.206
  WS02006235           JUNCTION        0.65          0.077        1.213
  WS02006238           JUNCTION        0.89          0.095        1.335
  WS02006240           JUNCTION        0.22          0.028        1.362
  WS02006242           JUNCTION        0.61          0.077        0.743
  WS02006239           JUNCTION        0.45          0.048        1.242
  WS02006252           JUNCTION        1.26          0.193        0.907
  WS02006228           JUNCTION        1.53          0.175        2.025
  YS02001748           JUNCTION        4.47          0.543        0.647
  YS02001751           JUNCTION        4.83          0.682        0.518
  YS02001754           JUNCTION        5.18          0.746        0.404
  YS02001762           JUNCTION        5.50          1.017        0.133
  YS02001765           JUNCTION        5.46          0.962        0.138
  YS02001767           JUNCTION        5.42          0.918        0.112
  YS02001770           JUNCTION        5.39          0.871        0.049
  YS02001774           JUNCTION        5.48          0.967        0.083
  YS02001779           JUNCTION        5.15          0.680        0.000
  YS02001759           JUNCTION        5.53          1.055        0.155
  YS02001907           JUNCTION        0.26          0.042        0.908
  YS02001619           JUNCTION        4.78          0.610        0.000
  YS02001629           JUNCTION        4.83          0.470        0.000
  YS02001641           JUNCTION        5.48          0.941        0.159
  YS02001644           JUNCTION        5.48          0.920        0.000
  YS02001652           JUNCTION        5.24          1.060        0.070
  YS02001655           JUNCTION        4.86          1.200        0.000
  YS02001658           JUNCTION        4.49          1.300        0.000
  YS02001661           JUNCTION        0.08          0.867        0.523
  YS02001622           JUNCTION        4.89          0.620        0.000
  YS02001633           JUNCTION        5.45          0.926        0.134
  YS02001649           JUNCTION        5.50          1.050        0.000
  YS02001757           JUNCTION        5.64          1.159        0.051
  YS02001625           JUNCTION        5.29          0.780        0.000
  YS02163301           JUNCTION        5.42          0.902        0.128
  YS02163601           JUNCTION        5.51          0.991        0.089
  YS02164001           JUNCTION        5.46          0.923        0.177
  YS02001647           JUNCTION        5.27          0.799        0.101
  YS02006553           JUNCTION        0.38          0.067        1.123
  YS02001783           JUNCTION        0.17          0.319        1.281
  YS02001784           JUNCTION        0.31          0.439        1.051
  YS02001786           JUNCTION        0.19          0.528        0.902
  YS02001788           JUNCTION        0.15          0.525        0.955
  YS02001790           JUNCTION        1.76          0.999        0.158
  YS02001791           JUNCTION        1.92          0.727        1.193
  YS02001793           JUNCTION        1.99          1.612        0.988
  
  
  *********************
  Node Flooding Summary
  *********************
  
  Flooding refers to all water that overflows a node, whether it ponds or not.
  --------------------------------------------------------------------------
                                                             Total   Maximum
                                 Maximum   Time of Max       Flood    Ponded
                        Hours       Rate    Occurrence      Volume     Depth
  Node                 Flooded       LPS   days hr:min    10^6 ltr    Meters
  --------------------------------------------------------------------------
  YS02001779              0.93      8.86      0  04:01       0.006     0.000
  YS02001619              0.01     22.11      0  03:12       0.000     0.000
  YS02001629              0.01     34.55      0  03:13       0.000     0.000
  YS02001644              3.11    397.18      0  04:12       1.522     0.000
  YS02001655              0.01    122.38      0  03:03       0.000     0.000
  YS02001658              0.01    165.18      0  03:06       0.000     0.000
  YS02001622              0.01     17.55      0  03:10       0.000     0.000
  YS02001649              0.01     29.00      0  03:44       0.000     0.000
  YS02001625              0.07     16.94      0  03:14       0.001     0.000
  JK-storage              1.31    620.92      0  02:59       0.724     0.000
  XR-storage              2.22    290.59      0  05:10       0.899     0.000
  
  
  **********************
  Storage Volume Summary
  **********************
  
  --------------------------------------------------------------------------------------------------
                         Average     Avg  Evap Exfil       Maximum     Max    Time of Max    Maximum
                          Volume    Pcnt  Pcnt  Pcnt        Volume    Pcnt     Occurrence    Outflow
  Storage Unit           1000 m3    Full  Loss  Loss       1000 m3    Full    days hr:min        LPS
  --------------------------------------------------------------------------------------------------
  JK-storage               0.108      37     0     0         0.291     100       0  02:54     600.00
  CC-storage               2.804      18     0     0         3.804      24       0  05:12     400.00
  XR-storage               0.711      77     0     0         0.926     100       0  04:26     380.00
  
  
  ***********************
  Outfall Loading Summary
  ***********************
  
  -----------------------------------------------------------
                         Flow       Avg       Max       Total
                         Freq      Flow      Flow      Volume
  Outfall Node           Pcnt       LPS       LPS    10^6 ltr
  -----------------------------------------------------------
  WSC                   99.99    586.82    921.75      15.013
  3                     86.75    176.37    480.45       3.375
  4                     20.00     54.14    147.10       0.240
  5                      0.00      0.00      0.00       0.000
  -----------------------------------------------------------
  System                51.69    817.32   1182.40      18.628
  
  
  ********************
  Link Flow Summary
  ********************
  
  -----------------------------------------------------------------------------
                                 Maximum  Time of Max   Maximum    Max/    Max/
                                  |Flow|   Occurrence   |Veloc|    Full    Full
  Link                 Type          LPS  days hr:min     m/sec    Flow   Depth
  -----------------------------------------------------------------------------
  WS02003066WSF200     CONDUIT    541.07     0  02:24      2.76    0.09    0.23
  WS02006287WS02006284 CONDUIT    204.71     0  02:27      1.62    0.09    0.22
  WS02006284WS02006280 CONDUIT    204.81     0  02:27      1.86    0.09    0.20
  WS02006280WS02006229 CONDUIT    204.81     0  02:27      2.99    0.04    0.14
  WS02006229WS02006228 CONDUIT    532.91     0  02:19      1.06    1.77    1.00
  WS02006256WS02006235 CONDUIT    166.25     0  00:01      2.58    1.76    1.00
  WS02006253WS02006251 CONDUIT     52.28     0  02:27      0.47    0.16    0.95
  WS02006252WS02006251 CONDUIT    400.34     0  03:46      3.19    1.47    1.00
  WS02006251WS02006249 CONDUIT    433.23     0  02:10      1.23    1.25    0.91
  WS02006249WS02006248 CONDUIT    369.83     0  02:02      1.19    2.03    0.87
  WS02006248WS02006247 CONDUIT    364.18     0  02:02      1.16    0.79    0.91
  WS02006247WS02006245 CONDUIT    357.82     0  02:02      1.13    2.84    0.95
  WS02006245WS02006243 CONDUIT    349.84     0  02:02      1.17    1.03    0.97
  WS02006243WS02006242 CONDUIT    336.06     0  02:03      1.00    0.72    1.00
  WS02006242WS02006240 CONDUIT    321.11     0  02:03      0.89    1.28    1.00
  WS02006240WS02006239 CONDUIT    312.73     0  07:11      0.87    0.98    1.00
  WS02006239WS02006238 CONDUIT    311.67     0  07:12      0.81    1.00    1.00
  WS02006238WS02006235 CONDUIT    312.11     0  07:12      1.25    0.70    1.00
  WS02006235WS02006234 CONDUIT    382.94     0  07:32      1.03    4.04    1.00
  WS02006234WS02006232 CONDUIT    382.55     0  03:51      1.13    0.77    1.00
  WS02006232WS02006231 CONDUIT    382.57     0  07:14      1.05    0.80    0.98
  WS02006231WS02006230 CONDUIT    382.70     0  03:51      1.32    5.81    0.94
  WS02006230WS02006229 CONDUIT    393.23     0  03:51      1.02    8.75    1.00
  WS02006228WS02006109 CONDUIT    532.91     0  02:19      1.06    2.33    1.00
  WS02006116WS02004401 CONDUIT    542.51     0  02:19      0.77    0.75    0.84
  WS02006115WS02006116 CONDUIT    543.45     0  02:18      0.88    0.70    0.76
  WS02006113WS02006111 CONDUIT    555.41     0  02:20      2.46    0.67    0.46
  WS02006112WS02006115 CONDUIT    545.94     0  02:18      0.75    0.32    0.87
  WS02006111WS02006112 CONDUIT    539.54     0  02:18      1.50    0.26    0.67
  WS02006110WS02006113 CONDUIT    534.62     0  02:18      1.27    0.49    0.78
  WS02006109WS02006110 CONDUIT    534.14     0  02:19      1.06    1.03    1.00
  WS02004411WS02004412 CONDUIT    541.07     0  02:24      0.93    0.77    0.70
  WS02004401WS02004402 CONDUIT    542.30     0  02:19      0.77    0.65    0.87
  WS02004413WS02003067 CONDUIT    541.03     0  02:24      1.11    0.23    0.59
  WS02004412WS02004413 CONDUIT    541.09     0  02:24      0.82    0.36    0.78
  WS02004410WS02004411 CONDUIT    541.18     0  02:23      0.94    0.74    0.69
  WS02004409WS02004410 CONDUIT    541.19     0  02:23      0.96    0.70    0.68
  WS02004407WS02004409 CONDUIT    541.37     0  02:20      1.47    0.19    0.48
  WS02004406WS02004407 CONDUIT    541.64     0  02:20      1.04    0.24    0.63
  WS02004405WS02004406 CONDUIT    542.05     0  02:19      0.70    1.07    0.96
  WS02004404WS02004405 CONDUIT    541.93     0  02:19      0.84    5.31    0.96
  WS02004403WS02004404 CONDUIT    541.68     0  02:19      0.74    0.39    0.93
  WS02004402WS02004403 CONDUIT    541.84     0  02:19      0.76    0.78    0.89
  WS02004139WS02001211 CONDUIT    378.84     0  02:09      0.90    0.48    0.59
  WS02004138WS02004139 CONDUIT    392.96     0  00:00      3.64    0.08    0.43
  WS02003067WS02003066 CONDUIT    541.05     0  02:24      1.21    0.17    0.42
  WS02001213WS02003059 CONDUIT    380.41     0  00:11      0.90    0.63    0.77
  WS02001212WS02001213 CONDUIT    383.13     0  00:11      1.31    0.59    0.47
  WS02001211WS02001212 CONDUIT    384.33     0  02:08      0.78    0.29    0.64
  WS02003072WS02003073 CONDUIT    920.25     0  02:33      1.71    1.99    0.48
  WS02003069WS02003072 CONDUIT    920.50     0  02:33      1.61    0.44    0.50
  WS02003060WS02003069 CONDUIT    920.58     0  02:32      1.86    0.36    0.45
  WS02003059WS02003060 CONDUIT    377.98     0  00:12      0.93    0.25    0.66
  HS02004901HS02004770 CONDUIT      9.22     0  02:24      0.05    0.03    0.31
  HS02004876HS02004881 CONDUIT     36.81     0  02:26      0.59    0.39    0.09
  HS02004870HS02004876 CONDUIT     29.40     0  02:26      0.41    0.02    0.10
  HS02004842HS02004848 CONDUIT      6.79     0  02:52      0.04    0.00    0.28
  HS02004837HS02004842 CONDUIT      7.01     0  03:02      0.41    0.00    0.29
  HS02004830HS02004837 CONDUIT     25.65     0  02:26      0.46    0.03    0.08
  HS02004824HS02004830 CONDUIT     25.79     0  02:27      0.49    0.03    0.08
  HS02004817HS02004824 CONDUIT     44.91     0  02:27      0.17    0.02    0.41
  HS02004770HS02004777 CONDUIT     48.37     0  02:24      0.21    0.09    0.33
  HS02004799HS02004480 CONDUIT    123.11     0  02:25      0.58    0.16    0.31
  HS02004792HS02004799 CONDUIT    112.10     0  02:25      0.66    0.07    0.24
  HS02004788HS02004792 CONDUIT     65.23     0  02:26      0.81    0.04    0.11
  HS02004785HS02004788 CONDUIT     48.34     0  02:26      0.49    0.36    0.14
  HS02004777HS02004785 CONDUIT     48.24     0  02:25      0.26    0.06    0.26
  HS02004480HS02004478 CONDUIT    146.06     0  02:26      0.94    0.62    0.22
  HS02004479HS02004480 CONDUIT     23.22     0  02:28      0.27    0.02    0.30
  HS02004862HS02004870 CONDUIT     22.03     0  02:27      0.49    0.02    0.06
  HS02004848HS02004852 CONDUIT      9.33     0  02:26      0.33    0.01    0.04
  HS02004856HS02004862 CONDUIT     14.82     0  02:26      0.35    0.01    0.06
  HS02004852HS02004856 CONDUIT      9.30     0  02:27      0.14    0.01    0.10
  HS02004802HS02004478 CONDUIT     59.19     0  02:29      0.33    0.05    0.26
  HS02004478WS02006287 CONDUIT    204.70     0  02:27      1.31    0.06    0.17
  HS02004817HS02004807 CONDUIT     45.68     0  02:29      0.13    0.03    0.52
  HS02004807HS02004802 CONDUIT     59.00     0  02:28      0.28    0.11    0.31
  YS02001759YS02001757 CONDUIT    382.95     0  03:01      0.49    0.27    1.00
  YS02001762YS02001759 CONDUIT    203.75     0  03:01      0.26    0.23    1.00
  YS02001765YS02001762 CONDUIT    201.84     0  03:01      0.28    0.19    1.00
  YS02001770YS02001767 CONDUIT    197.85     0  02:57      0.25    0.78    1.00
  YS02001774YS02001770 CONDUIT     32.81     0  01:57      0.22    0.02    1.00
  YS02001779YS02001774 CONDUIT     22.81     0  02:51      0.05    0.01    1.00
  YS02001649YS02001757 CONDUIT    620.12     0  03:03      0.79    0.38    1.00
  YS02001767YS02001765 CONDUIT    199.68     0  03:01      0.30    0.25    1.00
  YS02006561YS02001783 CONDUIT    633.77     0  03:04      2.08    0.33    0.74
  YS02001783YS02001784 CONDUIT    631.32     0  03:04      1.53    0.87    1.00
  YS02001784YS02001785 CONDUIT    632.26     0  03:04      1.63    1.47    1.00
  YS02001788YS02001790 CONDUIT    632.19     0  03:04      2.16    0.47    1.00
  YS02001790YS02001791 CONDUIT    632.47     0  03:04      2.56    0.69    1.00
  YS02001791YS02001793 CONDUIT    679.20     0  02:51      5.17    0.29    1.00
  YS02001910YS02001907 CONDUIT    218.99     0  03:04      0.49    0.12    0.91
  YS02001786YS02001788 CONDUIT    631.58     0  03:05      2.10    1.22    1.00
  YS02001915YS02001910 CONDUIT    215.01     0  03:06      0.55    0.11    0.71
  YS02001918YS02001915 CONDUIT     78.81     0  03:00      0.44    0.04    0.43
  YS02001923YS02001920 CONDUIT     64.77     0  03:02      0.57    0.03    0.22
  YS02001926YS02001923 CONDUIT     64.74     0  03:02      0.66    0.09    0.18
  YS02001929YS02001926 CONDUIT     64.92     0  03:01      0.71    0.03    0.17
  YS02001920YS02001918 CONDUIT     72.63     0  03:00      0.57    0.07    0.29
  YS02001629YS02163301 CONDUIT    168.18     0  03:00      0.21    0.21    1.00
  YS02001619YS02001622 CONDUIT    163.00     0  02:54      0.57    0.24    1.00
  YS02001622YS02001625 CONDUIT    212.45     0  02:53      0.31    0.11    1.00
  YS02001625YS02001629 CONDUIT    212.43     0  02:53      0.27    0.10    1.00
  YS02163301YS02001633 CONDUIT    167.71     0  03:00      0.21    0.16    1.00
  YS02163601YS02164001 CONDUIT    310.32     0  03:00      0.40    0.27    1.00
  YS02164001YS02001641 CONDUIT    310.93     0  03:01      0.40    0.42    1.00
  YS02001641YS02001644 CONDUIT    312.08     0  03:01      0.40    1.01    1.00
  YS02001647YS02001649 CONDUIT    455.05     0  03:01      0.58    0.24    1.00
  YS02006553YS02006556 CONDUIT    445.39     0  03:04      0.57    0.38    0.99
  YS02006556YS02006558 CONDUIT    470.43     0  03:04      0.60    0.37    1.00
  YSB6556YSB1171       CONDUIT     13.19     0  02:28      0.06    0.01    0.57
  YS02001907YS02006553 CONDUIT    445.78     0  03:04      0.50    0.52    1.00
  YS02006558YS02006561 CONDUIT    672.14     0  03:02      3.16    1.49    0.75
  YS02001633YS02163601 CONDUIT    311.29     0  03:00      0.40    0.33    1.00
  YS02001644YS02001647 CONDUIT    454.15     0  03:01      0.58    0.27    1.00
  YS02001745YS02001748 CONDUIT    476.92     0  03:12      1.42    0.18    0.93
  YS02001748YS02001751 CONDUIT    283.70     0  02:56      1.00    0.14    1.00
  YS02001751YS02001754 CONDUIT    215.07     0  02:55      0.86    0.10    1.00
  YS02001754YS02001757 CONDUIT    216.59     0  02:55      0.33    0.09    1.00
  YS02001882YS02001884 CONDUIT     14.22     0  03:08      0.09    0.02    0.65
  YS02001884YS02001887 CONDUIT     20.83     0  03:09      0.05    0.03    0.74
  YS02001890YS02001895 CONDUIT    235.85     0  03:02      0.40    0.11    0.71
  YS02001895YS02001898 CONDUIT    240.88     0  02:59      0.52    0.42    0.57
  YS02001898YS02001901 CONDUIT    240.09     0  03:05      0.45    0.15    0.65
  YS02001901YS02001904 CONDUIT    234.08     0  03:02      0.40    0.36    0.71
  YS02001904YS02001907 CONDUIT    246.45     0  03:04      0.35    0.09    0.85
  YS02001887YS02001890 CONDUIT    241.64     0  03:00      0.36    0.41    0.80
  YS02001652YS02001649 CONDUIT    245.72     0  03:03      0.56    0.12    1.00
  YS02001655YS02001652 CONDUIT    245.05     0  03:03      0.91    0.12    1.00
  YS02001658YS02001655 CONDUIT    359.33     0  02:54      1.15    0.15    1.00
  YS02001661YS02001658 CONDUIT    588.95     0  03:04      1.49    0.23    1.00
  YS02001664YS02001661 CONDUIT    485.32     0  03:40      1.39    0.15    0.71
  YSB1154YSB6556       CONDUIT     13.14     0  02:25      0.16    0.02    0.46
  YSB1174YSB1171       CONDUIT     10.08     0  02:23      0.04    0.02    0.57
  YSB1171HS02004479    CONDUIT     23.10     0  02:27      0.54    0.02    0.44
  HS02004881HS02006253 CONDUIT     40.75     0  02:26      1.69    0.01    0.26
  YS02001793JiankangQianchi CONDUIT    989.62     0  02:49     13.02    0.08    1.00
  YS02001757CaochengTiaoxuchi CONDUIT   1118.61     0  03:02      1.64    0.49    1.00
  WSF200WS02003060     CONDUIT    541.30     0  02:25      1.73    0.12    0.34
  1                    CONDUIT    921.75     0  02:34      3.25    0.32    0.39
  2                    CONDUIT    147.10     0  02:08      5.39    0.35    0.41
  3                    CONDUIT    480.45     0  05:02     10.38    0.77    0.66
  4                    CONDUIT      0.00     0  00:00      0.00    0.00    0.00
  CC-Pump-1            PUMP       200.00     0  02:01              1.00
  CC-Pump-2            PUMP       200.00     0  02:01              1.00
  JK-Pump-1            PUMP       300.00     0  03:10              1.00
  JK-Pump-2            PUMP       300.00     0  00:00              1.00
  XR-Pump-1            PUMP        95.00     0  00:00              1.00
  XR-Pump-2            PUMP        95.00     0  00:00              1.00
  XR-Pump-3            PUMP        95.00     0  00:00              1.00
  XR-Pump-4            PUMP        95.00     0  00:00              1.00
  
  
  ***************************
  Flow Classification Summary
  ***************************
  
  -------------------------------------------------------------------------------------
                      Adjusted    ---------- Fraction of Time in Flow Class ---------- 
                       /Actual         Up    Down  Sub   Sup   Up    Down  Norm  Inlet 
  Conduit               Length    Dry  Dry   Dry   Crit  Crit  Crit  Crit  Ltd   Ctrl  
  -------------------------------------------------------------------------------------
  WS02003066WSF200        1.00   0.03  0.03  0.00  0.00  0.94  0.00  0.00  0.72  0.00
  WS02006287WS02006284    1.00   0.04  0.01  0.00  0.63  0.32  0.00  0.00  0.77  0.00
  WS02006284WS02006280    1.00   0.04  0.00  0.00  0.00  0.00  0.00  0.96  0.00  0.00
  WS02006280WS02006229    1.00   0.04  0.00  0.00  0.00  0.00  0.00  0.96  0.00  0.00
  WS02006229WS02006228    1.00   0.00  0.00  0.00  0.99  0.00  0.00  0.01  0.00  0.00
  WS02006256WS02006235    1.00   0.00  0.00  0.00  1.00  0.00  0.00  0.00  0.00  0.00
  WS02006253WS02006251    1.00   0.03  0.01  0.00  0.96  0.00  0.00  0.00  0.00  0.00
  WS02006252WS02006251    1.00   0.07  0.00  0.00  0.00  0.00  0.93  0.00  0.00  0.00
  WS02006251WS02006249    1.00   0.00  0.00  0.00  1.00  0.00  0.00  0.00  0.23  0.00
  WS02006249WS02006248    1.00   0.00  0.02  0.00  0.91  0.00  0.07  0.00  0.00  0.00
  WS02006248WS02006247    1.00   0.02  0.00  0.00  0.98  0.00  0.00  0.00  0.12  0.00
  WS02006247WS02006245    1.00   0.02  0.00  0.00  0.98  0.00  0.00  0.00  0.00  0.00
  WS02006245WS02006243    1.00   0.01  0.00  0.00  0.95  0.00  0.00  0.03  0.01  0.00
  WS02006243WS02006242    1.00   0.01  0.00  0.00  0.99  0.00  0.00  0.00  0.20  0.00
  WS02006242WS02006240    1.00   0.00  0.00  0.00  1.00  0.00  0.00  0.00  0.00  0.00
  WS02006240WS02006239    1.00   0.00  0.00  0.00  0.97  0.00  0.00  0.03  0.01  0.00
  WS02006239WS02006238    1.00   0.00  0.00  0.00  1.00  0.00  0.00  0.00  0.00  0.00
  WS02006238WS02006235    1.00   0.00  0.00  0.00  1.00  0.00  0.00  0.00  0.00  0.00
  WS02006235WS02006234    1.00   0.00  0.00  0.00  0.97  0.00  0.03  0.00  0.00  0.00
  WS02006234WS02006232    1.00   0.00  0.00  0.00  1.00  0.00  0.00  0.00  0.00  0.00
  WS02006232WS02006231    1.00   0.00  0.00  0.00  0.99  0.00  0.00  0.00  0.00  0.00
  WS02006231WS02006230    1.00   0.00  0.00  0.00  0.57  0.00  0.42  0.00  0.00  0.00
  WS02006230WS02006229    1.00   0.00  0.00  0.00  0.99  0.00  0.00  0.01  0.00  0.00
  WS02006228WS02006109    1.00   0.00  0.00  0.00  1.00  0.00  0.00  0.00  0.00  0.00
  WS02006116WS02004401    1.00   0.02  0.00  0.00  0.98  0.00  0.00  0.00  0.00  0.00
  WS02006115WS02006116    1.00   0.02  0.00  0.00  0.97  0.00  0.00  0.01  0.00  0.00
  WS02006113WS02006111    1.00   0.02  0.00  0.00  0.00  0.98  0.00  0.00  0.11  0.00
  WS02006112WS02006115    1.00   0.02  0.00  0.00  0.98  0.00  0.00  0.00  0.00  0.00
  WS02006111WS02006112    1.00   0.02  0.00  0.00  0.98  0.00  0.00  0.00  0.98  0.00
  WS02006110WS02006113    1.00   0.01  0.01  0.00  0.98  0.00  0.00  0.00  0.00  0.00
  WS02006109WS02006110    1.00   0.00  0.01  0.00  0.98  0.00  0.01  0.00  0.00  0.00
  WS02004411WS02004412    1.00   0.04  0.00  0.00  0.96  0.00  0.00  0.00  0.00  0.00
  WS02004401WS02004402    1.00   0.02  0.00  0.00  0.98  0.00  0.00  0.00  0.00  0.00
  WS02004413WS02003067    1.00   0.04  0.01  0.00  0.00  0.00  0.95  0.00  0.00  0.00
  WS02004412WS02004413    1.00   0.04  0.00  0.00  0.96  0.00  0.00  0.00  0.03  0.00
  WS02004410WS02004411    1.00   0.04  0.00  0.00  0.96  0.00  0.00  0.00  0.03  0.00
  WS02004409WS02004410    1.00   0.04  0.00  0.00  0.96  0.00  0.00  0.00  0.03  0.00
  WS02004407WS02004409    1.00   0.04  0.00  0.00  0.96  0.00  0.00  0.00  0.89  0.00
  WS02004406WS02004407    1.00   0.00  0.03  0.00  0.96  0.00  0.00  0.00  0.00  0.00
  WS02004405WS02004406    1.00   0.00  0.00  0.00  1.00  0.00  0.00  0.00  0.00  0.00
  WS02004404WS02004405    1.00   0.00  0.00  0.00  1.00  0.00  0.00  0.00  0.00  0.00
  WS02004403WS02004404    1.00   0.00  0.02  0.00  0.98  0.00  0.00  0.00  0.01  0.00
  WS02004402WS02004403    1.00   0.02  0.00  0.00  0.98  0.00  0.00  0.00  0.00  0.00
  WS02004139WS02001211    1.00   0.00  0.00  0.00  1.00  0.00  0.00  0.00  0.00  0.00
  WS02004138WS02004139    1.00   0.00  0.00  0.00  0.99  0.01  0.00  0.00  1.00  0.00
  WS02003067WS02003066    1.00   0.05  0.01  0.00  0.94  0.00  0.00  0.00  0.00  0.00
  WS02001213WS02003059    1.00   0.00  0.00  0.00  0.99  0.00  0.00  0.00  0.00  0.00
  WS02001212WS02001213    1.00   0.00  0.00  0.00  0.89  0.00  0.10  0.00  0.00  0.00
  WS02001211WS02001212    1.00   0.00  0.00  0.00  1.00  0.00  0.00  0.00  0.00  0.00
  WS02003072WS02003073    1.00   0.00  0.00  0.00  0.00  0.00  0.00  1.00  0.00  0.00
  WS02003069WS02003072    1.00   0.00  0.00  0.00  0.99  0.01  0.00  0.00  0.20  0.00
  WS02003060WS02003069    1.00   0.00  0.00  0.00  0.98  0.02  0.00  0.00  0.10  0.00
  WS02003059WS02003060    1.00   0.00  0.00  0.00  1.00  0.00  0.00  0.00  0.01  0.00
  HS02004901HS02004770    1.00   0.04  0.00  0.00  0.96  0.00  0.00  0.00  0.00  0.00
  HS02004876HS02004881    1.00   0.02  0.00  0.00  0.98  0.00  0.00  0.00  0.00  0.00
  HS02004870HS02004876    1.00   0.00  0.00  0.00  0.99  0.00  0.00  0.00  0.95  0.00
  HS02004842HS02004848    1.00   0.00  0.04  0.00  0.96  0.00  0.00  0.00  0.61  0.00
  HS02004837HS02004842    1.00   0.00  0.00  0.00  0.99  0.01  0.00  0.00  0.11  0.00
  HS02004830HS02004837    1.00   0.00  0.00  0.00  1.00  0.00  0.00  0.00  0.99  0.00
  HS02004824HS02004830    1.00   0.00  0.00  0.00  1.00  0.00  0.00  0.00  0.00  0.00
  HS02004817HS02004824    1.00   0.00  0.00  0.00  1.00  0.00  0.00  0.00  1.00  0.00
  HS02004770HS02004777    1.00   0.00  0.04  0.00  0.96  0.00  0.00  0.00  0.03  0.00
  HS02004799HS02004480    1.00   0.00  0.02  0.00  0.95  0.00  0.02  0.00  0.00  0.00
  HS02004792HS02004799    1.00   0.00  0.00  0.00  0.99  0.01  0.00  0.00  0.98  0.00
  HS02004788HS02004792    1.00   0.00  0.00  0.00  0.99  0.01  0.00  0.00  0.98  0.00
  HS02004785HS02004788    1.00   0.00  0.00  0.00  1.00  0.00  0.00  0.00  0.00  0.00
  HS02004777HS02004785    1.00   0.00  0.00  0.00  1.00  0.00  0.00  0.00  0.13  0.00
  HS02004480HS02004478    1.00   0.04  0.00  0.00  0.68  0.00  0.00  0.28  0.00  0.00
  HS02004479HS02004480    1.00   0.03  0.00  0.00  0.97  0.00  0.00  0.00  0.12  0.00
  HS02004862HS02004870    1.00   0.00  0.00  0.00  1.00  0.00  0.00  0.00  0.06  0.00
  HS02004848HS02004852    1.00   0.04  0.00  0.00  0.96  0.00  0.00  0.00  0.69  0.00
  HS02004856HS02004862    1.00   0.00  0.05  0.00  0.95  0.00  0.00  0.00  0.81  0.00
  HS02004852HS02004856    1.00   0.04  0.00  0.00  0.96  0.00  0.00  0.00  0.86  0.00
  HS02004802HS02004478    1.00   0.04  0.00  0.00  0.96  0.00  0.00  0.00  0.03  0.00
  HS02004478WS02006287    1.00   0.05  0.00  0.00  0.77  0.19  0.00  0.00  0.77  0.00
  HS02004817HS02004807    1.00   0.00  0.04  0.00  0.96  0.00  0.00  0.00  0.01  0.00
  HS02004807HS02004802    1.00   0.04  0.00  0.00  0.96  0.00  0.00  0.00  0.00  0.00
  YS02001759YS02001757    1.00   0.00  0.00  0.00  1.00  0.00  0.00  0.00  0.16  0.00
  YS02001762YS02001759    1.00   0.00  0.00  0.00  1.00  0.00  0.00  0.00  0.03  0.00
  YS02001765YS02001762    1.00   0.00  0.00  0.00  1.00  0.00  0.00  0.00  0.15  0.00
  YS02001770YS02001767    1.00   0.00  0.00  0.00  1.00  0.00  0.00  0.00  0.00  0.00
  YS02001774YS02001770    1.00   0.00  0.04  0.00  0.96  0.00  0.00  0.00  0.03  0.00
  YS02001779YS02001774    1.00   0.00  0.00  0.00  1.00  0.00  0.00  0.00  0.21  0.00
  YS02001649YS02001757    1.00   0.00  0.00  0.00  1.00  0.00  0.00  0.00  0.16  0.00
  YS02001767YS02001765    1.00   0.00  0.00  0.00  1.00  0.00  0.00  0.00  0.01  0.00
  YS02006561YS02001783    1.00   0.05  0.00  0.00  0.27  0.68  0.00  0.00  0.69  0.00
  YS02001783YS02001784    1.00   0.00  0.05  0.00  0.95  0.00  0.00  0.00  0.01  0.00
  YS02001784YS02001785    1.00   0.00  0.00  0.00  1.00  0.00  0.00  0.00  0.19  0.00
  YS02001788YS02001790    1.00   0.00  0.00  0.00  0.36  0.64  0.00  0.00  0.60  0.00
  YS02001790YS02001791    1.00   0.00  0.00  0.00  0.32  0.68  0.00  0.00  0.49  0.00
  YS02001791YS02001793    1.00   0.00  0.00  0.00  0.32  0.68  0.00  0.00  0.01  0.00
  YS02001910YS02001907    1.00   0.00  0.00  0.00  0.98  0.00  0.00  0.02  0.12  0.00
  YS02001786YS02001788    1.00   0.00  0.00  0.00  0.36  0.64  0.00  0.00  0.00  0.00
  YS02001915YS02001910    1.00   0.00  0.00  0.00  0.99  0.01  0.00  0.00  0.18  0.00
  YS02001918YS02001915    1.00   0.00  0.01  0.00  0.98  0.01  0.00  0.00  0.68  0.00
  YS02001923YS02001920    1.00   0.00  0.00  0.00  1.00  0.00  0.00  0.00  1.00  0.00
  YS02001926YS02001923    1.00   0.00  0.03  0.00  0.00  0.00  0.97  0.00  0.00  0.00
  YS02001929YS02001926    1.00   0.00  0.04  0.00  0.96  0.00  0.00  0.00  0.87  0.00
  YS02001920YS02001918    1.00   0.00  0.01  0.00  0.99  0.00  0.00  0.00  0.00  0.00
  YS02001629YS02163301    1.00   0.05  0.00  0.00  0.95  0.00  0.00  0.00  0.00  0.00
  YS02001619YS02001622    1.00   0.04  0.00  0.00  0.96  0.00  0.00  0.00  0.00  0.00
  YS02001622YS02001625    1.00   0.04  0.00  0.00  0.96  0.00  0.00  0.00  0.07  0.00
  YS02001625YS02001629    1.00   0.04  0.01  0.00  0.93  0.00  0.02  0.00  0.00  0.00
  YS02163301YS02001633    1.00   0.00  0.05  0.00  0.95  0.00  0.00  0.00  0.00  0.00
  YS02163601YS02164001    1.00   0.00  0.03  0.00  0.97  0.00  0.00  0.00  0.00  0.00
  YS02164001YS02001641    1.00   0.01  0.03  0.00  0.97  0.00  0.00  0.00  0.06  0.00
  YS02001641YS02001644    1.00   0.00  0.01  0.00  0.99  0.00  0.00  0.00  0.00  0.00
  YS02001647YS02001649    1.00   0.00  0.05  0.00  0.95  0.00  0.00  0.00  0.01  0.00
  YS02006553YS02006556    1.00   0.01  0.00  0.00  0.99  0.00  0.00  0.00  0.03  0.00
  YS02006556YS02006558    1.00   0.00  0.00  0.00  1.00  0.00  0.00  0.00  0.00  0.00
  YSB6556YSB1171          1.00   0.03  0.01  0.00  0.96  0.00  0.00  0.00  0.00  0.00
  YS02001907YS02006553    1.00   0.00  0.02  0.00  0.98  0.00  0.00  0.00  0.00  0.00
  YS02006558YS02006561    1.00   0.05  0.00  0.00  0.00  0.95  0.00  0.00  0.60  0.00
  YS02001633YS02163601    1.00   0.00  0.01  0.00  0.99  0.00  0.00  0.00  0.15  0.00
  YS02001644YS02001647    1.00   0.00  0.05  0.00  0.95  0.00  0.00  0.00  0.00  0.00
  YS02001745YS02001748    1.00   0.00  0.00  0.00  0.86  0.02  0.00  0.12  0.06  0.00
  YS02001748YS02001751    1.00   0.00  0.00  0.00  0.97  0.03  0.00  0.00  0.16  0.00
  YS02001751YS02001754    1.00   0.00  0.00  0.00  0.94  0.00  0.00  0.06  0.02  0.00
  YS02001754YS02001757    1.00   0.00  0.00  0.00  0.99  0.01  0.00  0.00  0.20  0.00
  YS02001882YS02001884    1.00   0.04  0.00  0.00  0.95  0.00  0.00  0.00  0.00  0.00
  YS02001884YS02001887    1.00   0.03  0.01  0.00  0.96  0.00  0.00  0.00  0.00  0.00
  YS02001890YS02001895    1.00   0.00  0.04  0.00  0.95  0.00  0.00  0.00  0.00  0.00
  YS02001895YS02001898    1.00   0.05  0.00  0.00  0.94  0.00  0.01  0.00  0.00  0.00
  YS02001898YS02001901    1.00   0.05  0.00  0.00  0.95  0.00  0.00  0.00  0.03  0.00
  YS02001901YS02001904    1.00   0.05  0.00  0.00  0.95  0.00  0.00  0.00  0.00  0.00
  YS02001904YS02001907    1.00   0.00  0.05  0.00  0.95  0.00  0.00  0.00  0.00  0.00
  YS02001887YS02001890    1.00   0.00  0.00  0.00  0.98  0.00  0.02  0.00  0.00  0.00
  YS02001652YS02001649    1.00   0.00  0.00  0.00  1.00  0.00  0.00  0.00  0.18  0.00
  YS02001655YS02001652    1.00   0.00  0.00  0.00  0.94  0.00  0.00  0.06  0.02  0.00
  YS02001658YS02001655    1.00   0.00  0.04  0.00  0.93  0.03  0.00  0.00  0.12  0.00
  YS02001661YS02001658    1.00   0.04  0.00  0.00  0.86  0.09  0.00  0.00  0.16  0.00
  YS02001664YS02001661    1.00   0.04  0.00  0.00  0.84  0.12  0.00  0.00  0.28  0.00
  YSB1154YSB6556          1.00   0.04  0.00  0.00  0.96  0.00  0.00  0.00  0.02  0.00
  YSB1174YSB1171          1.00   0.03  0.01  0.00  0.96  0.00  0.00  0.00  0.00  0.00
  YSB1171HS02004479       1.00   0.03  0.00  0.00  0.97  0.00  0.00  0.00  0.10  0.00
  HS02004881HS02006253    1.00   0.03  0.00  0.00  0.79  0.03  0.00  0.15  0.66  0.00
  YS02001793JiankangQianchi    1.00   0.00  0.00  0.00  0.49  0.51  0.00  0.00  0.17  0.00
  YS02001757CaochengTiaoxuchi    1.00   0.00  0.07  0.00  0.93  0.00  0.00  0.00  0.00  0.00
  WSF200WS02003060        1.00   0.00  0.03  0.00  0.73  0.24  0.00  0.00  0.28  0.00
  1                       1.00   0.00  0.00  0.00  0.00  1.00  0.00  0.00  0.32  0.00
  2                       1.00   0.80  0.00  0.00  0.00  0.20  0.00  0.00  0.06  0.00
  3                       1.00   0.13  0.00  0.00  0.00  0.87  0.00  0.00  0.27  0.00
  4                       1.00   1.00  0.00  0.00  0.00  0.00  0.00  0.00  0.00  0.00
  
  
  *************************
  Conduit Surcharge Summary
  *************************
  
  ----------------------------------------------------------------------------
                                                           Hours        Hours 
                         --------- Hours Full --------   Above Full   Capacity
  Conduit                Both Ends  Upstream  Dnstream   Normal Flow   Limited
  ----------------------------------------------------------------------------
  WS02006229WS02006228        1.53      1.78      1.53      5.18         1.53
  WS02006256WS02006235        6.11      6.11      7.83      3.82         0.01
  WS02006252WS02006251        0.65      0.65      1.26      1.10         0.01
  WS02006251WS02006249        0.01      0.01      0.01      0.67         0.01
  WS02006249WS02006248        0.01      0.01      0.01      4.90         0.01
  WS02006247WS02006245        0.01      0.01      0.01      5.21         0.01
  WS02006245WS02006243        0.01      0.01      0.01      0.03         0.01
  WS02006243WS02006242        0.01      0.01      0.61      0.01         0.01
  WS02006242WS02006240        0.22      0.22      0.91      1.28         0.01
  WS02006240WS02006239        0.25      0.25      0.45      0.01         0.01
  WS02006239WS02006238        0.80      0.80      0.88      0.01         0.01
  WS02006238WS02006235        0.76      0.76      1.11      0.01         0.01
  WS02006235WS02006234        0.30      0.30      0.65      6.15         0.01
  WS02006234WS02006232        0.34      0.34      1.19      0.01         0.01
  WS02006232WS02006231        0.01      0.01      1.19      0.01         0.01
  WS02006231WS02006230        0.01      0.01      0.01      6.16         0.01
  WS02006230WS02006229        2.59      4.39      2.59      6.26         2.59
  WS02006228WS02006109        1.62      2.24      1.62      5.83         1.62
  WS02006112WS02006115        0.01      0.01      0.42      0.01         0.01
  WS02006111WS02006112        0.01      0.01      5.28      0.01         0.01
  WS02006110WS02006113        0.01      0.01      2.03      0.01         0.01
  WS02006109WS02006110        0.34      0.34      2.24      0.34         0.01
  WS02004405WS02004406        0.01      0.01      0.01      0.38         0.01
  WS02004404WS02004405        0.01      0.01      0.01      5.99         0.01
  WS02003072WS02003073        0.01      0.01      0.01      4.94         0.01
  YS02001759YS02001757        5.53      5.53      5.64      0.01         0.01
  YS02001762YS02001759        5.50      5.50      5.53      0.01         0.01
  YS02001765YS02001762        5.46      5.46      5.50      0.01         0.01
  YS02001770YS02001767        5.42      5.42      5.42      0.01         0.51
  YS02001774YS02001770        5.39      5.39      5.48      0.01         0.01
  YS02001779YS02001774        5.15      5.15      5.48      0.01         0.01
  YS02001649YS02001757        5.50      5.50      5.64      0.01         0.01
  YS02001767YS02001765        5.42      5.42      5.46      0.01         0.01
  YS02006561YS02001783        0.01      0.01      0.17      0.01         0.01
  YS02001783YS02001784        0.17      0.17      0.31      0.01         0.01
  YS02001784YS02001785        0.19      0.31      0.19      1.11         0.18
  YS02001788YS02001790        0.14      0.14      1.76      0.01         0.01
  YS02001790YS02001791        1.76      1.76      1.92      0.01         0.01
  YS02001791YS02001793        1.92      1.92      2.02      0.01         0.01
  YS02001910YS02001907        0.01      0.01      0.26      0.01         0.01
  YS02001786YS02001788        0.14      0.19      0.14      0.55         0.13
  YS02001629YS02163301        5.38      5.38      5.42      0.01         0.01
  YS02001619YS02001622        4.78      4.78      4.89      0.01         0.02
  YS02001622YS02001625        4.89      4.89      5.29      0.01         0.01
  YS02001625YS02001629        4.83      4.83      5.29      0.01         0.01
  YS02163301YS02001633        5.42      5.42      5.46      0.01         0.01
  YS02163601YS02164001        5.46      5.46      5.51      0.01         0.01
  YS02164001YS02001641        5.46      5.46      5.48      0.01         0.02
  YS02001641YS02001644        5.48      5.48      5.48      0.01         0.61
  YS02001647YS02001649        5.27      5.27      5.50      0.01         0.01
  YS02006553YS02006556        0.01      0.01      0.38      0.01         0.01
  YS02006556YS02006558        0.04      0.04      0.51      0.01         0.01
  YS02001907YS02006553        1.13      1.13      1.35      0.01         0.01
  YS02006558YS02006561        0.01      0.01      0.01      0.94         0.01
  YS02001633YS02163601        5.45      5.45      5.51      0.01         0.01
  YS02001644YS02001647        5.27      5.27      5.48      0.01         0.01
  YS02001745YS02001748        0.01      0.01      4.47      0.01         0.01
  YS02001748YS02001751        4.58      4.58      4.83      0.01         0.01
  YS02001751YS02001754        4.83      4.83      5.18      0.01         0.01
  YS02001754YS02001757        5.25      5.25      5.64      0.01         0.01
  YS02001904YS02001907        0.01      0.01      0.42      0.01         0.01
  YS02001652YS02001649        5.28      5.28      5.50      0.01         0.01
  YS02001655YS02001652        4.86      4.86      5.24      0.01         0.01
  YS02001658YS02001655        4.49      4.49      4.86      0.01         0.01
  YS02001661YS02001658        0.07      0.07      4.49      0.01         0.01
  YS02001664YS02001661        0.01      0.01      0.75      0.01         0.01
  YS02001793JiankangQianchi        1.99      1.99      2.84      0.01         0.01
  YS02001757CaochengTiaoxuchi        4.53      4.53      5.64      0.01         0.01
  
  
  ***************
  Pumping Summary
  ***************
  
  ---------------------------------------------------------------------------------------------------------
                                                  Min       Avg       Max     Total     Power    % Time Off
                        Percent   Number of      Flow      Flow      Flow    Volume     Usage    Pump Curve
  Pump                 Utilized   Start-Ups       LPS       LPS       LPS  10^6 ltr     Kw-hr    Low   High
  ---------------------------------------------------------------------------------------------------------
  CC-Pump-1               56.45           6      0.00    126.43    200.00     2.005      3.53    0.0   17.4
  CC-Pump-2               64.96           4      0.00    132.62    200.00     2.425      3.07    0.0    8.3
  JK-Pump-1               82.96           6      0.00    152.06    300.00     2.745     33.14    0.0    0.0
  JK-Pump-2               85.11           5      0.00    151.20    300.00     2.815     36.17    0.0    0.0
  XR-Pump-1               76.59           8      0.00     67.17     95.00     1.397     17.55    0.0    0.0
  XR-Pump-2               87.23           7      0.00     69.59     95.00     1.767     22.84    0.0    0.0
  XR-Pump-3               89.35           5      0.00     74.64     95.00     1.881     23.62    0.0    0.0
  XR-Pump-4               93.62           3      0.00     69.93     95.00     1.796     21.24    0.0    0.0
  

  Analysis begun on:  Fri Dec 24 11:36:06 2021
  Analysis ended on:  Fri Dec 24 11:36:10 2021
  Total elapsed time: 00:00:04