
  EPA STORM WATER MANAGEMENT MODEL - VERSION 5.1 (Build 5.3.0.dev0)
  --------------------------------------------------------------

  WARNING 04: minimum elevation drop used for Conduit WS02004404WS02004405
  WARNING 03: negative offset ignored for Link YS02001904YS02001907
  
  *********************************************************
  NOTE: The summary statistics displayed in this report are
  based on results found at every computational time step,  
  not just on results from each reporting time step.
  *********************************************************
  
  ****************
  Analysis Options
  ****************
  Flow Units ............... LPS
  Process Models:
    Rainfall/Runoff ........ YES
    RDII ................... NO
    Snowmelt ............... NO
    Groundwater ............ NO
    Flow Routing ........... YES
    Ponding Allowed ........ NO
    Water Quality .......... NO
  Infiltration Method ...... HORTON
  Flow Routing Method ...... DYNWAVE
  Surcharge Method ......... EXTRAN
  Starting Date ............ 08/28/2015 08:00:00
  Ending Date .............. 08/28/2015 16:00:00
  Antecedent Dry Days ...... 8.0
  Report Time Step ......... 00:01:00
  Wet Time Step ............ 00:01:00
  Dry Time Step ............ 00:01:00
  Routing Time Step ........ 5.00 sec
  Variable Time Step ....... YES
  Maximum Trials ........... 8
  Number of Threads ........ 4
  Head Tolerance ........... 0.001500 m
  
  
  **************************        Volume         Depth
  Runoff Quantity Continuity     hectare-m            mm
  **************************     ---------       -------
  Total Precipitation ......         4.901        10.730
  Evaporation Loss .........         0.000         0.000
  Infiltration Loss ........         1.258         2.754
  Surface Runoff ...........         2.647         5.796
  Final Storage ............         0.996         2.181
  Continuity Error (%) .....        -0.015
  
  
  **************************        Volume        Volume
  Flow Routing Continuity        hectare-m      10^6 ltr
  **************************     ---------     ---------
  Dry Weather Inflow .......         0.630         6.296
  Wet Weather Inflow .......         2.646        26.464
  Groundwater Inflow .......         0.000         0.000
  RDII Inflow ..............         0.000         0.000
  External Inflow ..........         0.105         1.045
  External Outflow .........         2.196        21.961
  Flooding Loss ............         0.664         6.640
  Evaporation Loss .........         0.000         0.000
  Exfiltration Loss ........         0.000         0.000
  Initial Stored Volume ....         0.076         0.761
  Final Stored Volume ......         0.633         6.332
  Continuity Error (%) .....        -1.065
  
  
  *************************
  Highest Continuity Errors
  *************************
  Node HS02004842 (17.85%)
  Node YS02001884 (10.98%)
  Node YS02001774 (8.18%)
  Node JK-storage (-4.57%)
  Node YSB1171 (3.58%)
  
  
  ***************************
  Time-Step Critical Elements
  ***************************
  Link WS02006252WS02006251 (63.97%)
  Link 3 (30.21%)
  Link WS02006280WS02006229 (1.26%)
  Link WS02006238WS02006235 (1.00%)
  
  
  ********************************
  Highest Flow Instability Indexes
  ********************************
  Link WS02006113WS02006111 (36)
  Link YS02163301YS02001633 (36)
  Link YS02001629YS02163301 (36)
  Link YS02163601YS02164001 (35)
  Link YS02001619YS02001622 (34)
  
  
  *************************
  Routing Time Step Summary
  *************************
  Minimum Time Step           :     0.50 sec
  Average Time Step           :     0.80 sec
  Maximum Time Step           :     5.00 sec
  Percent in Steady State     :    -0.00
  Average Iterations per Step :     4.36
  Percent Not Converging      :    19.48
  
  
  ***************************
  Subcatchment Runoff Summary
  ***************************
  
  ------------------------------------------------------------------------------------------------------------------------------
                            Total      Total      Total      Total     Imperv       Perv      Total       Total     Peak  Runoff
                           Precip      Runon       Evap      Infil     Runoff     Runoff     Runoff      Runoff   Runoff   Coeff
  Subcatchment                 mm         mm         mm         mm         mm         mm         mm    10^6 ltr      LPS
  ------------------------------------------------------------------------------------------------------------------------------
  sub0                      10.73       0.00       0.00       0.75       8.71       0.00       8.71        0.01     1.57   0.812
  sub1                      10.73       0.00       0.00       1.18       8.29       0.00       8.29        0.06    11.51   0.773
  sub2                      10.73       0.00       0.00       3.97       5.85       0.00       5.85        0.05    10.94   0.545
  sub3                      10.73       0.00       0.00       3.97       5.82       0.00       5.82        0.13    24.53   0.542
  sub4                      10.73       0.00       0.00       1.18       8.15       0.00       8.15        0.17    29.92   0.759
  sub5                      10.73       0.00       0.00       0.75       8.67       0.00       8.67        0.10    20.48   0.808
  sub7                      10.73       0.00       0.00       0.97       8.51       0.00       8.51        0.03     6.25   0.793
  sub8                      10.73       0.00       0.00       0.97       8.50       0.00       8.50        0.05    11.69   0.792
  sub9                      10.73       0.00       0.00       0.97       8.50       0.00       8.50        0.04     8.77   0.792
  sub10                     10.73       0.00       0.00       0.86       8.58       0.00       8.58        0.09    19.95   0.800
  sub11                     10.73       0.00       0.00       0.86       8.60       0.00       8.60        0.10    21.59   0.801
  sub12                     10.73       0.00       0.00       1.39       8.15       0.00       8.15        0.07    15.76   0.759
  sub14                     10.73       0.00       0.00       0.97       8.50       0.00       8.50        0.08    17.30   0.792
  sub15                     10.73       0.00       0.00       3.22       6.53       0.00       6.53        0.11    23.89   0.609
  sub16                     10.73       0.00       0.00       3.54       6.27       0.00       6.27        0.07    14.47   0.584
  sub17                     10.73       0.00       0.00       3.43       6.36       0.00       6.36        0.05    11.99   0.593
  sub22                     10.73       0.00       0.00       4.61       5.33       0.00       5.33        0.34    72.94   0.497
  sub23                     10.73       0.00       0.00       3.97       5.89       0.00       5.89        0.28    61.12   0.549
  sub60                     10.73       0.00       0.00       1.29       6.64       0.00       6.64        2.01   213.63   0.619
  sub61                     10.73       0.00       0.00       1.82       6.79       0.00       6.79        2.09   252.14   0.633
  sub62                     10.73       0.00       0.00       0.86       7.37       0.00       7.37        2.27   263.34   0.687
  sub63                     10.73       0.00       0.00       3.11       5.96       0.00       5.96        1.80   228.05   0.555
  sub64                     10.73       0.00       0.00       1.61       6.37       0.00       6.37        1.94   203.54   0.594
  sub65                     10.73       0.00       0.00       1.39       6.47       0.00       6.47        1.99   207.17   0.603
  sub66                     10.73       0.00       0.00       3.11       5.48       0.00       5.48        1.68   183.85   0.511
  sub67                     10.73       0.00       0.00       0.86       7.82       0.00       7.82        2.41   315.70   0.729
  sub68                     10.73       0.00       0.00       1.50       7.15       0.00       7.15        2.20   272.84   0.667
  sub69                     10.73       0.00       0.00       1.61       7.45       0.00       7.45        1.74   249.69   0.694
  sub70                     10.73       7.60       0.00       6.21       9.86       0.03       9.89        2.26   249.51   0.539
  sub71                     10.73       0.00       0.00       0.86       7.17       0.00       7.17        1.69   187.90   0.668
  sub72                     10.73       0.00       0.00       0.75       5.62       0.00       5.62        1.15    96.75   0.524
  sub73                     10.73       9.62       0.00       6.91      10.68       0.01      10.69        2.51   227.29   0.525
  sub74                     10.73       0.00       0.00       8.05       2.22       0.00       2.22        0.89   133.58   0.207
  
  
  ******************
  Node Depth Summary
  ******************
  
  ---------------------------------------------------------------------------------
                                 Average  Maximum  Maximum  Time of Max    Reported
                                   Depth    Depth      HGL   Occurrence   Max Depth
  Node                 Type       Meters   Meters   Meters  days hr:min      Meters
  ---------------------------------------------------------------------------------
  WS02001211           JUNCTION     0.70     0.73     5.57     0  02:28        0.73
  WS02001212           JUNCTION     0.42     0.46     5.53     0  02:27        0.46
  WS02001213           JUNCTION     0.66     0.73     5.49     0  02:25        0.73
  WS02003069           JUNCTION     0.47     0.58     5.17     0  02:24        0.58
  WS02003072           JUNCTION     0.54     0.64     5.01     0  02:25        0.64
  WS02003073           JUNCTION     0.32     0.39     4.46     0  02:26        0.39
  WS02003060           JUNCTION     0.42     0.51     5.44     0  02:24        0.51
  WS02003066           JUNCTION     0.25     0.32     5.87     0  02:23        0.32
  WS02003059           JUNCTION     0.71     0.79     5.47     0  02:24        0.79
  WS02003067           JUNCTION     0.60     0.73     6.05     0  02:23        0.73
  WS02004401           JUNCTION     0.71     0.93     6.93     0  02:20        0.93
  WS02004402           JUNCTION     0.74     0.95     6.91     0  02:21        0.95
  WS02004403           JUNCTION     0.76     0.96     6.89     0  02:18        0.96
  WS02004404           JUNCTION     0.83     1.03     6.88     0  02:21        1.03
  WS02004406           JUNCTION     0.84     1.01     6.84     0  02:18        1.00
  WS02004409           JUNCTION     0.53     0.73     6.50     0  02:21        0.73
  WS02004410           JUNCTION     0.55     0.74     6.46     0  02:22        0.74
  WS02004411           JUNCTION     0.56     0.74     6.42     0  02:22        0.74
  WS02004412           JUNCTION     0.57     0.75     6.39     0  02:22        0.75
  WS02004413           JUNCTION     0.73     0.90     6.37     0  02:22        0.90
  WS02004405           JUNCTION     0.83     1.02     6.87     0  02:21        1.02
  WS02006109           JUNCTION     0.80     1.06     7.68     0  02:19        1.05
  WS02006110           JUNCTION     0.78     0.98     7.57     0  02:20        0.98
  WS02006111           JUNCTION     0.23     0.32     7.02     0  02:16        0.31
  WS02006112           JUNCTION     0.89     1.20     7.08     0  02:34        1.16
  WS02006113           JUNCTION     0.36     0.49     7.39     0  02:19        0.49
  WS02006115           JUNCTION     0.60     0.84     6.98     0  02:20        0.84
  WS02006116           JUNCTION     0.69     0.92     6.96     0  02:20        0.92
  WS02006230           JUNCTION     0.78     1.12     7.86     0  02:18        1.12
  WS02006231           JUNCTION     0.52     0.78     7.90     0  02:18        0.78
  WS02006232           JUNCTION     0.66     0.91     7.95     0  02:19        0.90
  WS02006234           JUNCTION     0.58     0.82     7.98     0  02:18        0.82
  WS02006235           JUNCTION     0.61     0.84     8.01     0  02:20        0.84
  WS02006238           JUNCTION     0.64     0.87     8.01     0  02:20        0.87
  WS02006240           JUNCTION     0.53     0.76     8.05     0  02:19        0.76
  WS02006242           JUNCTION     0.58     0.81     8.08     0  02:19        0.81
  WS02006243           JUNCTION     0.46     0.70     8.12     0  03:11        0.70
  WS02006245           JUNCTION     0.43     0.67     8.15     0  03:11        0.67
  WS02006247           JUNCTION     0.45     0.68     8.18     0  03:11        0.68
  WS02006248           JUNCTION     0.39     0.61     8.20     0  03:11        0.61
  WS02006249           JUNCTION     0.42     0.62     8.22     0  03:11        0.62
  WS02006239           JUNCTION     0.59     0.83     8.03     0  02:19        0.82
  WS02006251           JUNCTION     0.41     0.65     8.32     0  03:10        0.65
  WS02006252           JUNCTION     0.34     0.59     8.84     0  03:18        0.59
  WS02006253           JUNCTION     0.43     0.67     8.32     0  03:10        0.67
  WS02006256           JUNCTION     1.08     1.21     8.15     0  02:19        1.21
  WS02004138           JUNCTION     0.16     0.17     7.42     0  00:24        0.17
  WS02004407           JUNCTION     0.24     0.32     6.63     0  02:21        0.32
  WS02006228           JUNCTION     0.80     1.12     7.77     0  02:19        1.11
  WS02006229           JUNCTION     0.78     1.12     7.82     0  02:18        1.12
  WS02006280           JUNCTION     0.07     0.17     8.45     0  02:18        0.17
  WS02006284           JUNCTION     0.37     0.52     8.92     0  02:18        0.52
  WS02006287           JUNCTION     0.10     0.26     9.21     0  02:17        0.26
  WSF200               JUNCTION     0.23     0.34     5.57     0  02:23        0.34
  HS02004901           JUNCTION     0.13     0.26    10.08     0  02:15        0.26
  HS02004881           JUNCTION     0.01     0.03     9.06     0  02:17        0.03
  HS02004876           JUNCTION     0.05     0.11     9.14     0  02:17        0.11
  HS02004870           JUNCTION     0.02     0.06     9.34     0  02:17        0.06
  HS02004862           JUNCTION     0.02     0.06     9.45     0  02:18        0.06
  HS02004856           JUNCTION     0.08     0.12     9.54     0  02:18        0.12
  HS02004852           JUNCTION     0.01     0.04     9.55     0  02:19        0.04
  HS02004848           JUNCTION     0.01     0.04     9.64     0  02:18        0.04
  HS02004842           JUNCTION     0.33     0.37     9.64     0  02:18        0.37
  HS02004837           JUNCTION     0.03     0.06     9.64     0  02:18        0.06
  HS02004830           JUNCTION     0.04     0.07     9.54     0  02:18        0.07
  HS02004824           JUNCTION     0.02     0.05     9.46     0  02:24        0.05
  HS02004817           JUNCTION     0.44     0.57     9.42     0  02:18        0.57
  HS02004807           JUNCTION     0.13     0.24     9.41     0  02:18        0.24
  HS02004802           JUNCTION     0.17     0.28     9.41     0  02:18        0.28
  HS02004799           JUNCTION     0.13     0.30     9.52     0  02:16        0.30
  HS02004792           JUNCTION     0.04     0.12     9.65     0  02:15        0.12
  HS02004788           JUNCTION     0.03     0.09     9.99     0  02:16        0.09
  HS02004785           JUNCTION     0.05     0.16    10.06     0  02:16        0.16
  HS02004777           JUNCTION     0.15     0.28    10.08     0  02:16        0.28
  HS02004770           JUNCTION     0.12     0.25    10.08     0  02:15        0.25
  HS02004480           JUNCTION     0.09     0.24     9.48     0  02:16        0.24
  HS02004479           JUNCTION     0.12     0.28     9.48     0  02:16        0.28
  HS02004478           JUNCTION     0.07     0.16     9.39     0  02:17        0.16
  YS02001745           JUNCTION     0.69     0.86     8.38     0  03:36        0.86
  YS02001748           JUNCTION     1.08     1.77     8.85     0  02:42        1.31
  YS02001751           JUNCTION     1.26     2.13     9.01     0  02:29        1.52
  YS02001754           JUNCTION     1.51     2.08     8.68     0  02:29        1.79
  YS02001762           JUNCTION     1.71     2.03     8.43     0  03:16        2.02
  YS02001765           JUNCTION     1.67     1.97     8.42     0  03:26        1.97
  YS02001767           JUNCTION     1.63     1.93     8.42     0  03:36        1.92
  YS02001770           JUNCTION     1.63     1.91     8.40     0  03:14        1.90
  YS02001774           JUNCTION     1.70     1.97     8.39     0  03:12        1.96
  YS02001779           JUNCTION     1.44     1.68     8.37     0  02:34        1.68
  YS02001882           JUNCTION     0.45     1.07     7.78     0  03:02        1.05
  YS02001884           JUNCTION     0.54     1.16     7.78     0  03:03        1.14
  YS02001759           JUNCTION     1.75     2.06     8.43     0  03:26        2.05
  YS02001887           JUNCTION     0.62     1.24     7.78     0  03:02        1.22
  YS02001890           JUNCTION     0.65     1.26     7.77     0  03:02        1.24
  YS02001898           JUNCTION     0.42     1.01     7.75     0  03:04        1.01
  YS02001901           JUNCTION     0.54     1.13     7.74     0  03:04        1.13
  YS02001904           JUNCTION     0.51     1.11     7.74     0  03:04        1.11
  YS02001907           JUNCTION     0.84     1.46     7.75     0  03:04        1.45
  YS02001910           JUNCTION     0.63     1.24     7.75     0  03:04        1.24
  YS02001915           JUNCTION     0.43     1.04     7.76     0  03:03        1.04
  YS02001918           JUNCTION     0.19     0.68     7.75     0  03:04        0.68
  YS02001619           JUNCTION     1.23     1.61     8.54     0  02:30        1.52
  YS02001629           JUNCTION     1.58     1.85     8.40     0  02:33        1.84
  YS02001641           JUNCTION     1.68     1.93     8.37     0  07:49        1.93
  YS02001644           JUNCTION     1.69     1.92     8.35     0  02:34        1.92
  YS02001652           JUNCTION     1.53     2.16     8.76     0  02:51        2.02
  YS02001655           JUNCTION     1.29     2.20     9.05     0  02:26        2.01
  YS02001920           JUNCTION     0.28     0.75     7.75     0  03:04        0.74
  YS02001923           JUNCTION     0.13     0.49     7.75     0  03:04        0.49
  YS02001926           JUNCTION     0.20     0.32     7.76     0  03:04        0.32
  YS02001929           JUNCTION     0.10     0.15     7.84     0  03:01        0.15
  YS02001658           JUNCTION     1.02     2.30     9.44     0  02:32        1.74
  YS02001661           JUNCTION     0.79     2.46     9.86     0  02:55        1.41
  YS02001664           JUNCTION     0.35     0.57     8.50     0  02:53        0.56
  YS02001622           JUNCTION     1.25     1.62     8.52     0  02:31        1.51
  YS02001633           JUNCTION     1.67     1.96     8.41     0  02:38        1.93
  YS02001649           JUNCTION     1.72     2.05     8.44     0  02:33        2.05
  YS02001757           JUNCTION     1.84     2.17     8.43     0  03:17        2.15
  YS02001895           JUNCTION     0.41     1.01     7.75     0  03:04        1.00
  YS02001625           JUNCTION     1.54     1.78     8.38     0  02:33        1.78
  YS02163301           JUNCTION     1.61     1.91     8.43     0  02:38        1.87
  YS02163601           JUNCTION     1.73     1.99     8.38     0  03:05        1.98
  YS02164001           JUNCTION     1.66     1.91     8.37     0  02:50        1.91
  YS02001647           JUNCTION     1.51     1.83     8.44     0  02:34        1.79
  YSB1154              JUNCTION     0.26     0.43     9.48     0  02:16        0.43
  YSB6556              JUNCTION     0.16     0.31     9.48     0  02:16        0.31
  YSB1174              JUNCTION     0.22     0.37     9.48     0  02:16        0.37
  YSB1171              JUNCTION     0.42     0.58     9.48     0  02:16        0.58
  YS02006553           JUNCTION     0.85     1.45     7.74     0  03:03        1.44
  YS02006561           JUNCTION     0.24     0.70     7.36     0  03:05        0.70
  YS02006556           JUNCTION     0.82     1.40     7.71     0  03:05        1.40
  YS02006558           JUNCTION     0.86     1.44     7.71     0  03:04        1.43
  YS02001783           JUNCTION     0.47     1.27     7.41     0  02:54        1.17
  YS02001784           JUNCTION     0.49     1.50     7.57     0  02:54        1.14
  YS02001786           JUNCTION     0.45     1.56     7.59     0  02:54        1.05
  YS02001788           JUNCTION     0.40     1.63     7.60     0  02:54        0.97
  YS02001790           JUNCTION     0.53     1.57     7.21     0  02:54        1.19
  YS02001791           JUNCTION     0.51     1.36     6.83     0  02:54        1.23
  YS02001793           JUNCTION     0.71     1.80     6.63     0  03:31        1.79
  WS02004139           JUNCTION     0.64     0.67     5.58     0  02:27        0.67
  WSC                  OUTFALL      0.32     0.39     1.06     0  02:26        0.39
  3                    OUTFALL      0.11     0.21     6.21     0  02:19        0.21
  4                    OUTFALL      0.02     0.12     7.12     0  03:11        0.12
  5                    OUTFALL      0.00     0.00     5.00     0  00:00        0.00
  JK-storage           STORAGE      2.66     5.80     6.60     0  02:54        5.80
  CC-storage           STORAGE      1.06     1.36     8.36     0  03:38        1.36
  XR-storage           STORAGE      6.49     7.72     5.72     0  03:02        7.72
  
  
  *******************
  Node Inflow Summary
  *******************
  
  -------------------------------------------------------------------------------------------------
                                  Maximum  Maximum                  Lateral       Total        Flow
                                  Lateral    Total  Time of Max      Inflow      Inflow     Balance
                                   Inflow   Inflow   Occurrence      Volume      Volume       Error
  Node                 Type           LPS      LPS  days hr:min    10^6 ltr    10^6 ltr     Percent
  -------------------------------------------------------------------------------------------------
  WS02001211           JUNCTION      7.35   293.22     0  03:43       0.212        8.07       0.186
  WS02001212           JUNCTION      0.00   293.89     0  03:42           0        8.06       0.103
  WS02001213           JUNCTION      0.00   294.49     0  03:41           0        8.05       0.159
  WS02003069           JUNCTION      0.32   935.43     0  02:24     0.00922          17       0.105
  WS02003072           JUNCTION      0.00   935.35     0  02:24           0          17       0.143
  WS02003073           JUNCTION      1.82   937.18     0  02:25      0.0524          17       0.156
  WS02003060           JUNCTION     16.53   935.25     0  02:23       0.476          17       0.097
  WS02003066           JUNCTION      0.00   627.69     0  02:23           0        8.52       0.044
  WS02003059           JUNCTION      0.00   295.57     0  03:41           0        8.04       0.310
  WS02003067           JUNCTION      0.00   627.66     0  02:23           0        8.53       0.095
  WS02004401           JUNCTION      0.00   631.59     0  02:17           0        8.72       0.191
  WS02004402           JUNCTION      0.00   630.45     0  02:17           0         8.7       0.185
  WS02004403           JUNCTION      0.00   629.57     0  02:17           0        8.68       0.173
  WS02004404           JUNCTION      0.16   628.85     0  02:18     0.00467        8.67       0.135
  WS02004406           JUNCTION      0.00   628.73     0  02:18           0        8.65       0.332
  WS02004409           JUNCTION      0.00   628.58     0  02:21           0        8.61       0.140
  WS02004410           JUNCTION      0.00   628.24     0  02:21           0         8.6       0.167
  WS02004411           JUNCTION      0.00   627.99     0  02:22           0        8.59       0.178
  WS02004412           JUNCTION      0.00   627.87     0  02:22           0        8.57       0.199
  WS02004413           JUNCTION      0.00   627.75     0  02:22           0        8.55       0.305
  WS02004405           JUNCTION      0.04   628.82     0  02:18      0.0011        8.66       0.203
  WS02006109           JUNCTION      1.23   616.94     0  02:17      0.0354        8.75       0.170
  WS02006110           JUNCTION      0.00   616.93     0  02:17           0        8.73       0.150
  WS02006111           JUNCTION      0.00   648.71     0  02:19           0        8.72       0.023
  WS02006112           JUNCTION     11.99   638.91     0  02:17      0.0546        8.77       0.275
  WS02006113           JUNCTION      0.00   617.90     0  02:17           0        8.72       0.055
  WS02006115           JUNCTION      0.00   641.14     0  02:17           0        8.74       0.161
  WS02006116           JUNCTION      0.00   633.70     0  02:17           0        8.73       0.146
  WS02006230           JUNCTION     10.28   390.15     0  03:20       0.296        7.07       0.135
  WS02006231           JUNCTION      0.00   379.13     0  03:20           0        6.77       0.021
  WS02006232           JUNCTION      0.00   379.10     0  03:20           0        6.78       0.119
  WS02006234           JUNCTION      0.00   378.99     0  03:20           0        6.78       0.004
  WS02006235           JUNCTION      0.00   378.95     0  03:20           0        6.82       0.080
  WS02006238           JUNCTION      0.00   290.21     0  03:21           0        4.57       0.044
  WS02006240           JUNCTION      0.00   289.95     0  03:21           0        4.54       0.034
  WS02006242           JUNCTION      0.00   289.92     0  03:21           0        4.53       0.047
  WS02006243           JUNCTION      0.00   288.96     0  03:20           0        4.52      -0.046
  WS02006245           JUNCTION      0.00   288.71     0  03:20           0        4.52       0.035
  WS02006247           JUNCTION      0.00   288.48     0  03:20           0        4.52       0.009
  WS02006248           JUNCTION      0.00   288.23     0  03:20           0        4.52      -0.016
  WS02006249           JUNCTION      0.00   424.42     0  03:10           0        4.76       0.037
  WS02006239           JUNCTION      0.00   290.09     0  03:21           0        4.55       0.040
  WS02006251           JUNCTION      0.08   424.68     0  03:10     0.00222        4.76       0.001
  WS02006252           JUNCTION      0.00   400.00     0  03:10           0        4.44       0.002
  WS02006253           JUNCTION      1.57    65.68     0  02:17     0.00706       0.315      -0.100
  WS02006256           JUNCTION      0.00   600.00     0  02:02           0        7.03       0.024
  WS02004138           JUNCTION      0.00   285.00     0  00:40           0        7.87       0.001
  WS02004407           JUNCTION      0.00   629.08     0  02:18           0        8.62       0.059
  WS02006228           JUNCTION      0.00   615.71     0  02:17           0        8.72       0.105
  WS02006229           JUNCTION      0.00   615.62     0  02:17           0        8.73       0.089
  WS02006280           JUNCTION      0.00   311.84     0  02:18           0        1.67       0.004
  WS02006284           JUNCTION      0.10   311.83     0  02:18     0.00275        1.67       0.071
  WS02006287           JUNCTION      0.00   311.72     0  02:17           0        1.67       0.042
  WSF200               JUNCTION      0.00   627.70     0  02:23           0        8.52       0.040
  HS02004901           JUNCTION     14.47    14.47     0  02:14      0.0656      0.0659       2.740
  HS02004881           JUNCTION      6.25    64.18     0  02:17      0.0287       0.308       0.111
  HS02004876           JUNCTION     11.51    58.09     0  02:17      0.0551        0.28       0.190
  HS02004870           JUNCTION     11.69    46.68     0  02:17      0.0543       0.225       0.048
  HS02004862           JUNCTION     11.14    35.25     0  02:17      0.0603       0.171       0.099
  HS02004856           JUNCTION      8.77    24.16     0  02:17      0.0409       0.112       1.306
  HS02004852           JUNCTION      0.00    15.60     0  02:18           0      0.0711       0.074
  HS02004848           JUNCTION     24.53    24.53     0  02:24       0.131       0.131       0.034
  HS02004842           JUNCTION      0.00     9.31     0  02:27           0      0.0728      21.733
  HS02004837           JUNCTION     26.30    34.95     0  02:17       0.277       0.337       0.234
  HS02004830           JUNCTION      0.15    35.08     0  02:18     0.00432       0.328       0.378
  HS02004824           JUNCTION     29.97    64.64     0  02:24       0.171       0.498       0.108
  HS02004817           JUNCTION      0.60    65.24     0  02:24      0.0173       0.515       3.346
  HS02004807           JUNCTION     21.59    85.89     0  02:19      0.0999       0.598       0.723
  HS02004802           JUNCTION      0.00    86.15     0  02:20           0       0.594       0.674
  HS02004799           JUNCTION     17.30   190.84     0  02:15      0.0809       0.926       0.272
  HS02004792           JUNCTION     73.22   173.61     0  02:15       0.344       0.846       0.048
  HS02004788           JUNCTION     25.56   100.77     0  02:16        0.16       0.502       0.077
  HS02004785           JUNCTION      0.15    75.34     0  02:15     0.00432       0.343       0.140
  HS02004777           JUNCTION      0.03    75.31     0  02:15    0.000864       0.344       1.529
  HS02004770           JUNCTION     61.12    75.44     0  02:14       0.281       0.345       0.905
  HS02004480           JUNCTION      0.00   226.58     0  02:16           0        1.09       0.101
  HS02004479           JUNCTION      0.00    35.97     0  02:17           0       0.178       0.411
  HS02004478           JUNCTION      0.00   311.71     0  02:17           0        1.67       0.024
  YS02001745           JUNCTION    213.63   238.34     0  02:30        2.01        2.01       0.569
  YS02001748           JUNCTION      0.04   438.41     0  02:40      0.0013           2       1.168
  YS02001751           JUNCTION      0.01   326.58     0  02:31    0.000317        1.98       1.210
  YS02001754           JUNCTION      0.26   252.36     0  02:34     0.00749        1.96       1.266
  YS02001762           JUNCTION      0.00   266.48     0  02:42           0        1.94       1.100
  YS02001765           JUNCTION      0.00   265.46     0  02:54           0        1.94       1.274
  YS02001767           JUNCTION      0.54   265.17     0  02:54      0.0154        1.96       1.864
  YS02001770           JUNCTION    263.49   264.09     0  02:55        2.27        2.28       1.407
  YS02001774           JUNCTION      0.00    97.18     0  03:11           0       0.306       8.904
  YS02001779           JUNCTION      0.01    97.33     0  03:10    0.000144       0.276       5.963
  YS02001882           JUNCTION      0.00    18.45     0  03:00           0      0.0165      13.922
  YS02001884           JUNCTION      0.00    30.79     0  02:55           0      0.0518      12.333
  YS02001759           JUNCTION    252.18   517.95     0  02:54         2.1           4       0.573
  YS02001887           JUNCTION    316.15   318.71     0  02:56        2.43        2.45       0.328
  YS02001890           JUNCTION      0.00   317.10     0  02:56           0        2.41       0.363
  YS02001898           JUNCTION      0.00   310.88     0  02:53           0         2.4       0.118
  YS02001901           JUNCTION      0.00   310.09     0  02:53           0        2.39       0.267
  YS02001904           JUNCTION      0.00   309.42     0  02:53           0        2.39       0.247
  YS02001907           JUNCTION      0.00   587.45     0  02:53           0        5.29       0.446
  YS02001910           JUNCTION      0.00   301.31     0  03:10           0        2.91       0.384
  YS02001915           JUNCTION    187.92   299.36     0  03:08        1.69        2.91       0.189
  YS02001918           JUNCTION      0.00   132.86     0  03:09           0        1.22       0.140
  YS02001619           JUNCTION    183.85   183.85     0  02:56        1.68        1.68       0.725
  YS02001629           JUNCTION      0.00   196.88     0  02:28           0        1.57       1.808
  YS02001641           JUNCTION      0.00   386.13     0  02:32           0        3.46       0.605
  YS02001644           JUNCTION    203.58   714.05     0  03:17        1.94        6.63       0.393
  YS02001652           JUNCTION      0.00   312.25     0  02:32           0        1.75       1.338
  YS02001655           JUNCTION      0.15   390.07     0  02:27     0.00443        1.78       1.403
  YS02001920           JUNCTION      2.87   124.57     0  03:08      0.0827        1.23       0.222
  YS02001923           JUNCTION      0.04    99.43     0  03:07     0.00109        1.14       0.038
  YS02001926           JUNCTION      0.05    96.79     0  03:01      0.0015        1.15       0.279
  YS02001929           JUNCTION     96.75    96.75     0  03:01        1.15        1.15       0.041
  YS02001658           JUNCTION      0.00   640.98     0  02:34           0        1.81       1.263
  YS02001661           JUNCTION      0.00   628.17     0  02:53           0        2.58      -0.030
  YS02001664           JUNCTION    228.05   373.89     0  02:51         1.8        2.57       0.287
  YS02001622           JUNCTION      0.00   184.08     0  02:56           0        1.67       1.928
  YS02001633           JUNCTION    207.37   386.65     0  02:32           2        3.52       0.915
  YS02001649           JUNCTION      0.00   818.48     0  02:49           0        4.38       0.845
  YS02001757           JUNCTION      0.00  1516.53     0  02:49           0        8.97       1.037
  YS02001895           JUNCTION      0.00   318.65     0  02:56           0         2.4       0.189
  YS02001625           JUNCTION      0.00   196.98     0  02:28           0        1.64       2.432
  YS02163301           JUNCTION      0.00   209.27     0  02:32           0        1.55       1.561
  YS02163601           JUNCTION      0.11   386.71     0  02:32     0.00317        3.49       0.867
  YS02164001           JUNCTION      0.00   386.54     0  02:32           0        3.47       0.577
  YS02001647           JUNCTION      0.00   585.29     0  02:50           0        3.35       0.849
  YSB1154              JUNCTION     20.48    20.48     0  02:15      0.0982      0.0991       1.481
  YSB6556              JUNCTION      0.00    20.46     0  02:16           0      0.0997       1.264
  YSB1174              JUNCTION     15.76    15.76     0  02:14      0.0712      0.0718       1.822
  YSB1171              JUNCTION      0.00    35.91     0  02:15           0       0.177       3.708
  YS02006553           JUNCTION      0.00   587.42     0  02:53           0        5.28       0.288
  YS02006561           JUNCTION      0.00   861.03     0  02:53           0        7.45       0.005
  YS02006556           JUNCTION      0.00   587.41     0  02:53           0        5.28       0.208
  YS02006558           JUNCTION    273.72   861.08     0  02:53        2.22        7.48       0.072
  YS02001783           JUNCTION      0.00   861.26     0  02:53           0        7.45       0.028
  YS02001784           JUNCTION      1.06   860.57     0  02:53      0.0305        7.48       0.046
  YS02001786           JUNCTION      0.06   859.13     0  02:53     0.00162        7.47       0.041
  YS02001788           JUNCTION      0.07   858.39     0  02:51     0.00204        7.47       0.023
  YS02001790           JUNCTION      0.15   861.48     0  02:51     0.00446        7.48       0.032
  YS02001791           JUNCTION      0.00   896.10     0  02:50           0        7.47       0.012
  YS02001793           JUNCTION      0.00   871.20     0  02:49           0        7.47       0.001
  WS02004139           JUNCTION      0.32   285.32     0  00:13     0.00924        7.87       0.183
  WSC                  OUTFALL       0.00   937.21     0  02:26           0          17       0.000
  3                    OUTFALL       0.00   525.84     0  02:19           0        4.74       0.000
  4                    OUTFALL       0.00   142.35     0  03:11           0       0.241       0.000
  5                    OUTFALL       0.00     0.00     0  00:00           0           0       0.000 ltr
  JK-storage           STORAGE       0.00   846.87     0  02:46           0        7.62      -4.369
  CC-storage           STORAGE       0.00  1516.97     0  02:49           0         8.3       0.791
  XR-storage           STORAGE     546.20   546.20     0  02:57        9.16        9.76       0.001
  
  
  **********************
  Node Surcharge Summary
  **********************
  
  Surcharging occurs when water rises above the top of the highest conduit.
  ---------------------------------------------------------------------
                                               Max. Height   Min. Depth
                                   Hours       Above Crown    Below Rim
  Node                 Type      Surcharged         Meters       Meters
  ---------------------------------------------------------------------
  WS02004404           JUNCTION        0.50          0.028        2.752
  WS02004406           JUNCTION        0.17          0.006        2.444
  WS02004405           JUNCTION        0.37          0.016        2.784
  WS02006109           JUNCTION        1.64          0.241        1.579
  WS02006110           JUNCTION        1.07          0.071        1.779
  WS02006112           JUNCTION        1.25          0.195        1.485
  WS02006230           JUNCTION        0.44          0.037        1.533
  WS02006231           JUNCTION        0.69          0.069        1.461
  WS02006232           JUNCTION        1.54          0.207        1.273
  WS02006234           JUNCTION        1.29          0.102        1.138
  WS02006235           JUNCTION        1.42          0.135        1.155
  WS02006238           JUNCTION        1.46          0.150        1.280
  WS02006240           JUNCTION        1.05          0.052        1.338
  WS02006242           JUNCTION        1.36          0.081        0.739
  WS02006239           JUNCTION        1.33          0.085        1.205
  WS02006252           JUNCTION        0.42          0.193        0.907
  WS02006228           JUNCTION        1.62          0.291        1.909
  YS02001748           JUNCTION        5.24          0.694        0.496
  YS02001751           JUNCTION        5.49          1.130        0.070
  YS02001754           JUNCTION        5.66          1.025        0.125
  YS02001762           JUNCTION        5.89          1.026        0.124
  YS02001765           JUNCTION        5.87          0.972        0.128
  YS02001767           JUNCTION        5.85          0.928        0.102
  YS02001770           JUNCTION        5.84          0.876        0.044
  YS02001774           JUNCTION        5.88          0.971        0.079
  YS02001779           JUNCTION        5.66          0.680        0.000
  YS02001882           JUNCTION        0.13          0.066        0.764
  YS02001884           JUNCTION        0.20          0.102        0.768
  YS02001759           JUNCTION        5.91          1.065        0.145
  YS02001887           JUNCTION        0.33          0.192        0.758
  YS02001890           JUNCTION        0.41          0.210        0.550
  YS02001901           JUNCTION        0.28          0.134        0.736
  YS02001904           JUNCTION        0.24          0.113        0.737
  YS02001907           JUNCTION        1.27          0.448        0.502
  YS02001910           JUNCTION        0.58          0.244        0.856
  YS02001915           JUNCTION        0.10          0.040        0.960
  YS02001619           JUNCTION        5.48          0.610        0.000
  YS02001629           JUNCTION        5.50          0.470        0.000
  YS02001641           JUNCTION        5.88          0.934        0.166
  YS02001644           JUNCTION        5.88          0.920        0.000
  YS02001652           JUNCTION        5.67          1.130        0.000
  YS02001655           JUNCTION        5.50          1.200        0.000
  YS02001658           JUNCTION        5.29          1.300        0.000
  YS02001661           JUNCTION        0.19          1.390        0.000
  YS02001622           JUNCTION        5.53          0.620        0.000
  YS02001633           JUNCTION        5.86          0.937        0.123
  YS02001649           JUNCTION        5.89          1.050        0.000
  YS02001757           JUNCTION        5.96          1.167        0.043
  YS02001895           JUNCTION        0.01          0.006        0.744
  YS02001625           JUNCTION        5.76          0.780        0.000
  YS02163301           JUNCTION        5.85          0.914        0.116
  YS02163601           JUNCTION        5.89          0.986        0.094
  YS02164001           JUNCTION        5.87          0.915        0.185
  YS02001647           JUNCTION        5.68          0.827        0.073
  YS02006553           JUNCTION        1.35          0.451        0.739
  YS02006556           JUNCTION        0.95          0.361        0.989
  YS02006558           JUNCTION        0.88          0.341        1.059
  YS02001783           JUNCTION        0.63          0.470        1.130
  YS02001784           JUNCTION        0.68          0.698        0.792
  YS02001786           JUNCTION        0.61          0.758        0.672
  YS02001788           JUNCTION        0.61          0.826        0.654
  YS02001790           JUNCTION        1.98          0.768        0.389
  YS02001791           JUNCTION        2.10          0.564        1.356
  YS02001793           JUNCTION        2.32          0.802        1.798
  
  
  *********************
  Node Flooding Summary
  *********************
  
  Flooding refers to all water that overflows a node, whether it ponds or not.
  --------------------------------------------------------------------------
                                                             Total   Maximum
                                 Maximum   Time of Max       Flood    Ponded
                        Hours       Rate    Occurrence      Volume     Depth
  Node                 Flooded       LPS   days hr:min    10^6 ltr    Meters
  --------------------------------------------------------------------------
  YS02001779              2.08     97.22      0  03:10       0.256     0.000
  YS02001619              0.01     41.70      0  02:33       0.000     0.000
  YS02001629              0.01     32.45      0  02:34       0.000     0.000
  YS02001644              4.46    713.88      0  03:17       4.484     0.000
  YS02001652              0.01     23.38      0  02:59       0.000     0.000
  YS02001655              0.01    213.86      0  02:27       0.001     0.000
  YS02001658              0.01    423.04      0  02:34       0.001     0.000
  YS02001661              0.01    183.04      0  02:59       0.001     0.000
  YS02001622              0.01     44.87      0  02:35       0.000     0.000
  YS02001649              0.07     53.78      0  02:59       0.004     0.000
  YS02001625              0.39     34.12      0  02:57       0.026     0.000
  JK-storage              1.65    366.47      0  03:29       0.900     0.000
  XR-storage              2.93    253.82      0  03:02       0.968     0.000
  
  
  **********************
  Storage Volume Summary
  **********************
  
  --------------------------------------------------------------------------------------------------
                         Average     Avg  Evap Exfil       Maximum     Max    Time of Max    Maximum
                          Volume    Pcnt  Pcnt  Pcnt        Volume    Pcnt     Occurrence    Outflow
  Storage Unit           1000 m3    Full  Loss  Loss       1000 m3    Full    days hr:min        LPS
  --------------------------------------------------------------------------------------------------
  JK-storage               0.134      46     0     0         0.291     100       0  02:54     600.00
  CC-storage               2.967      19     0     0         3.793      24       0  03:38     400.00
  XR-storage               0.779      84     0     0         0.926     100       0  03:02     285.00
  
  
  ***********************
  Outfall Loading Summary
  ***********************
  
  -----------------------------------------------------------
                         Flow       Avg       Max       Total
                         Freq      Flow      Flow      Volume
  Outfall Node           Pcnt       LPS       LPS    10^6 ltr
  -----------------------------------------------------------
  WSC                  100.00    671.17    937.21      16.976
  3                     93.20    239.40    525.84       4.743
  4                     25.99     48.41    142.35       0.241
  5                      0.00      0.00      0.00       0.000
  -----------------------------------------------------------
  System                54.80    958.99   1504.80      21.961
  
  
  ********************
  Link Flow Summary
  ********************
  
  -----------------------------------------------------------------------------
                                 Maximum  Time of Max   Maximum    Max/    Max/
                                  |Flow|   Occurrence   |Veloc|    Full    Full
  Link                 Type          LPS  days hr:min     m/sec    Flow   Depth
  -----------------------------------------------------------------------------
  WS02003066WSF200     CONDUIT    627.70     0  02:23      2.78    0.11    0.25
  WS02006287WS02006284 CONDUIT    311.73     0  02:18      1.86    0.14    0.27
  WS02006284WS02006280 CONDUIT    311.84     0  02:18      2.10    0.13    0.24
  WS02006280WS02006229 CONDUIT    311.84     0  02:18      3.39    0.07    0.17
  WS02006229WS02006228 CONDUIT    615.71     0  02:17      1.22    2.04    1.00
  WS02006256WS02006235 CONDUIT    150.00     0  00:05      2.14    1.59    1.00
  WS02006253WS02006251 CONDUIT     65.58     0  02:18      0.48    0.20    0.94
  WS02006252WS02006251 CONDUIT    400.27     0  03:18      3.19    1.47    1.00
  WS02006251WS02006249 CONDUIT    424.42     0  03:10      1.16    1.22    0.91
  WS02006249WS02006248 CONDUIT    288.23     0  03:20      1.07    1.58    0.86
  WS02006248WS02006247 CONDUIT    288.48     0  03:20      1.03    0.63    0.91
  WS02006247WS02006245 CONDUIT    288.71     0  03:20      0.99    2.29    0.95
  WS02006245WS02006243 CONDUIT    288.96     0  03:20      1.04    0.85    0.97
  WS02006243WS02006242 CONDUIT    289.92     0  03:21      0.84    0.62    1.00
  WS02006242WS02006240 CONDUIT    289.95     0  03:21      0.75    1.15    1.00
  WS02006240WS02006239 CONDUIT    290.09     0  03:21      0.75    0.91    1.00
  WS02006239WS02006238 CONDUIT    290.21     0  03:21      0.75    0.93    1.00
  WS02006238WS02006235 CONDUIT    290.25     0  03:21      0.75    0.65    1.00
  WS02006235WS02006234 CONDUIT    378.99     0  03:20      0.98    4.00    1.00
  WS02006234WS02006232 CONDUIT    379.10     0  03:20      0.99    0.77    1.00
  WS02006232WS02006231 CONDUIT    379.13     0  03:20      1.01    0.79    1.00
  WS02006231WS02006230 CONDUIT    379.87     0  03:20      1.29    5.76    1.00
  WS02006230WS02006229 CONDUIT    391.32     0  03:20      1.02    8.71    1.00
  WS02006228WS02006109 CONDUIT    615.71     0  02:17      1.22    2.69    1.00
  WS02006116WS02004401 CONDUIT    631.59     0  02:17      0.83    0.87    0.92
  WS02006115WS02006116 CONDUIT    633.70     0  02:17      0.89    0.81    0.85
  WS02006113WS02006111 CONDUIT    648.71     0  02:19      2.58    0.78    0.50
  WS02006112WS02006115 CONDUIT    641.14     0  02:17      0.85    0.38    0.91
  WS02006111WS02006112 CONDUIT    627.17     0  02:17      1.70    0.30    0.69
  WS02006110WS02006113 CONDUIT    617.90     0  02:17      1.42    0.56    0.81
  WS02006109WS02006110 CONDUIT    616.93     0  02:17      1.23    1.19    1.00
  WS02004411WS02004412 CONDUIT    627.87     0  02:22      1.00    0.89    0.74
  WS02004401WS02004402 CONDUIT    630.45     0  02:17      0.85    0.76    0.94
  WS02004413WS02003067 CONDUIT    627.66     0  02:23      1.21    0.27    0.63
  WS02004412WS02004413 CONDUIT    627.75     0  02:22      0.91    0.42    0.82
  WS02004410WS02004411 CONDUIT    627.99     0  02:22      1.01    0.86    0.74
  WS02004409WS02004410 CONDUIT    628.24     0  02:21      1.02    0.81    0.73
  WS02004407WS02004409 CONDUIT    628.58     0  02:21      1.51    0.22    0.53
  WS02004406WS02004407 CONDUIT    629.08     0  02:18      1.14    0.28    0.66
  WS02004405WS02004406 CONDUIT    628.73     0  02:18      0.80    1.24    1.00
  WS02004404WS02004405 CONDUIT    628.79     0  02:18      0.97    6.16    1.00
  WS02004403WS02004404 CONDUIT    628.68     0  02:18      0.84    0.45    0.98
  WS02004402WS02004403 CONDUIT    629.57     0  02:17      0.87    0.90    0.96
  WS02004139WS02001211 CONDUIT    285.88     0  03:43      0.57    0.36    0.54
  WS02004138WS02004139 CONDUIT    285.00     0  00:13      2.11    0.06    0.40
  WS02003067WS02003066 CONDUIT    627.69     0  02:23      1.32    0.20    0.44
  WS02001213WS02003059 CONDUIT    295.57     0  03:41      0.59    0.49    0.75
  WS02001212WS02001213 CONDUIT    294.49     0  03:41      1.19    0.45    0.43
  WS02001211WS02001212 CONDUIT    293.89     0  03:42      0.67    0.22    0.60
  WS02003072WS02003073 CONDUIT    935.36     0  02:25      1.72    2.02    0.48
  WS02003069WS02003072 CONDUIT    935.35     0  02:24      1.62    0.45    0.51
  WS02003060WS02003069 CONDUIT    935.11     0  02:24      1.86    0.37    0.46
  WS02003059WS02003060 CONDUIT    297.07     0  03:41      0.82    0.19    0.65
  HS02004901HS02004770 CONDUIT     14.36     0  02:15      0.06    0.05    0.37
  HS02004876HS02004881 CONDUIT     58.08     0  02:18      0.83    0.62    0.10
  HS02004870HS02004876 CONDUIT     46.67     0  02:17      0.57    0.03    0.12
  HS02004842HS02004848 CONDUIT      9.31     0  02:27      0.05    0.01    0.29
  HS02004837HS02004842 CONDUIT      9.50     0  02:29      0.42    0.01    0.31
  HS02004830HS02004837 CONDUIT     34.93     0  02:18      0.52    0.03    0.10
  HS02004824HS02004830 CONDUIT     35.08     0  02:18      0.55    0.05    0.09
  HS02004817HS02004824 CONDUIT     64.64     0  02:24      0.21    0.03    0.44
  HS02004770HS02004777 CONDUIT     75.28     0  02:15      0.28    0.14    0.38
  HS02004799HS02004480 CONDUIT    190.76     0  02:16      0.72    0.24    0.38
  HS02004792HS02004799 CONDUIT    173.58     0  02:15      0.82    0.11    0.30
  HS02004788HS02004792 CONDUIT    100.74     0  02:16      0.95    0.07    0.15
  HS02004785HS02004788 CONDUIT     75.31     0  02:16      0.61    0.57    0.18
  HS02004777HS02004785 CONDUIT     75.19     0  02:15      0.34    0.09    0.31
  HS02004480HS02004478 CONDUIT    226.57     0  02:16      1.12    0.95    0.29
  HS02004479HS02004480 CONDUIT     36.11     0  02:18      0.25    0.03    0.37
  HS02004862HS02004870 CONDUIT     35.23     0  02:18      0.58    0.04    0.09
  HS02004848HS02004852 CONDUIT     15.60     0  02:18      0.40    0.02    0.06
  HS02004856HS02004862 CONDUIT     24.14     0  02:18      0.43    0.02    0.08
  HS02004852HS02004856 CONDUIT     15.58     0  02:19      0.20    0.02    0.11
  HS02004802HS02004478 CONDUIT     86.44     0  02:21      0.40    0.08    0.31
  HS02004478WS02006287 CONDUIT    311.72     0  02:17      1.56    0.09    0.22
  HS02004817HS02004807 CONDUIT     65.61     0  02:25      0.16    0.04    0.58
  HS02004807HS02004802 CONDUIT     86.15     0  02:20      0.34    0.16    0.37
  YS02001759YS02001757 CONDUIT    518.02     0  02:54      0.66    0.37    1.00
  YS02001762YS02001759 CONDUIT    267.45     0  02:42      0.34    0.31    1.00
  YS02001765YS02001762 CONDUIT    266.48     0  02:42      0.34    0.25    1.00
  YS02001770YS02001767 CONDUIT    264.63     0  02:54      0.34    1.05    1.00
  YS02001774YS02001770 CONDUIT     97.18     0  03:11      0.21    0.06    1.00
  YS02001779YS02001774 CONDUIT     97.33     0  03:10      0.12    0.05    1.00
  YS02001649YS02001757 CONDUIT    818.39     0  02:49      1.04    0.50    1.00
  YS02001767YS02001765 CONDUIT    265.46     0  02:54      0.34    0.33    1.00
  YS02006561YS02001783 CONDUIT    861.26     0  02:53      2.15    0.45    0.94
  YS02001783YS02001784 CONDUIT    859.51     0  02:53      1.72    1.18    1.00
  YS02001784YS02001785 CONDUIT    859.08     0  02:53      1.86    2.00    1.00
  YS02001788YS02001790 CONDUIT    861.33     0  02:51      2.44    0.63    1.00
  YS02001790YS02001791 CONDUIT    896.10     0  02:50      3.00    0.97    1.00
  YS02001791YS02001793 CONDUIT    871.20     0  02:49      5.96    0.37    1.00
  YS02001910YS02001907 CONDUIT    301.48     0  03:10      0.49    0.17    1.00
  YS02001786YS02001788 CONDUIT    858.32     0  02:51      2.30    1.65    1.00
  YS02001915YS02001910 CONDUIT    301.31     0  03:10      0.53    0.15    1.00
  YS02001918YS02001915 CONDUIT    132.02     0  03:12      0.44    0.07    0.84
  YS02001923YS02001920 CONDUIT    121.70     0  03:08      0.65    0.05    0.61
  YS02001926YS02001923 CONDUIT     99.39     0  03:07      0.76    0.14    0.30
  YS02001929YS02001926 CONDUIT     96.74     0  03:01      0.83    0.05    0.23
  YS02001920YS02001918 CONDUIT    132.86     0  03:09      0.64    0.13    0.71
  YS02001629YS02163301 CONDUIT    209.27     0  02:32      0.27    0.26    1.00
  YS02001619YS02001622 CONDUIT    184.08     0  02:56      0.64    0.27    1.00
  YS02001622YS02001625 CONDUIT    196.98     0  02:28      0.28    0.11    1.00
  YS02001625YS02001629 CONDUIT    196.88     0  02:28      0.25    0.09    1.00
  YS02163301YS02001633 CONDUIT    209.30     0  02:32      0.27    0.20    1.00
  YS02163601YS02164001 CONDUIT    386.54     0  02:32      0.49    0.34    1.00
  YS02164001YS02001641 CONDUIT    386.13     0  02:32      0.49    0.53    1.00
  YS02001641YS02001644 CONDUIT    385.89     0  02:33      0.49    1.25    1.00
  YS02001647YS02001649 CONDUIT    585.30     0  02:50      0.75    0.31    1.00
  YS02006553YS02006556 CONDUIT    587.41     0  02:53      0.75    0.50    1.00
  YS02006556YS02006558 CONDUIT    587.37     0  02:53      0.75    0.46    1.00
  YSB6556YSB1171       CONDUIT     20.55     0  02:18      0.08    0.02    0.64
  YS02001907YS02006553 CONDUIT    587.42     0  02:53      0.65    0.69    1.00
  YS02006558YS02006561 CONDUIT    861.03     0  02:53      3.41    1.90    1.00
  YS02001633YS02163601 CONDUIT    386.60     0  02:32      0.49    0.41    1.00
  YS02001644YS02001647 CONDUIT    585.29     0  02:50      0.75    0.34    1.00
  YS02001745YS02001748 CONDUIT    438.37     0  02:40      1.53    0.17    0.93
  YS02001748YS02001751 CONDUIT    326.56     0  02:31      1.08    0.16    1.00
  YS02001751YS02001754 CONDUIT    252.10     0  02:34      0.87    0.12    1.00
  YS02001754YS02001757 CONDUIT    250.38     0  02:33      0.33    0.10    1.00
  YS02001882YS02001884 CONDUIT     18.45     0  03:00      0.08    0.02    1.00
  YS02001884YS02001887 CONDUIT     30.79     0  02:55      0.05    0.04    1.00
  YS02001890YS02001895 CONDUIT    318.65     0  02:56      0.46    0.15    1.00
  YS02001895YS02001898 CONDUIT    310.88     0  02:53      0.58    0.54    0.99
  YS02001898YS02001901 CONDUIT    310.09     0  02:53      0.50    0.20    1.00
  YS02001901YS02001904 CONDUIT    309.42     0  02:53      0.46    0.48    1.00
  YS02001904YS02001907 CONDUIT    308.85     0  02:53      0.41    0.11    1.00
  YS02001887YS02001890 CONDUIT    317.10     0  02:56      0.42    0.54    1.00
  YS02001652YS02001649 CONDUIT    312.22     0  02:32      0.54    0.15    1.00
  YS02001655YS02001652 CONDUIT    312.25     0  02:32      0.92    0.15    1.00
  YS02001658YS02001655 CONDUIT    389.92     0  02:27      1.24    0.17    1.00
  YS02001661YS02001658 CONDUIT    640.98     0  02:34      1.62    0.25    1.00
  YS02001664YS02001661 CONDUIT    628.17     0  02:53      1.59    0.20    0.71
  YSB1154YSB6556       CONDUIT     20.46     0  02:16      0.18    0.04    0.53
  YSB1174YSB1171       CONDUIT     15.65     0  02:14      0.06    0.02    0.65
  YSB1171HS02004479    CONDUIT     35.97     0  02:17      0.54    0.02    0.50
  HS02004881HS02006253 CONDUIT     64.18     0  02:17      1.72    0.01    0.25
  YS02001793JiankangQianchi CONDUIT    846.87     0  02:46     16.39    0.07    1.00
  YS02001757CaochengTiaoxuchi CONDUIT   1516.97     0  02:49      2.40    0.67    1.00
  WSF200WS02003060     CONDUIT    627.75     0  02:23      1.74    0.14    0.36
  1                    CONDUIT    937.21     0  02:26      3.27    0.33    0.39
  2                    CONDUIT    142.35     0  03:11      5.34    0.34    0.40
  3                    CONDUIT    525.84     0  02:19      9.86    0.84    0.71
  4                    CONDUIT      0.00     0  00:00      0.00    0.00    0.00
  CC-Pump-1            PUMP       200.00     0  01:57              1.00
  CC-Pump-2            PUMP       200.00     0  03:10              1.00
  JK-Pump-1            PUMP       300.00     0  00:10              1.00
  JK-Pump-2            PUMP       300.00     0  02:02              1.00
  XR-Pump-1            PUMP        95.00     0  00:10              1.00
  XR-Pump-2            PUMP        95.00     0  00:10              1.00
  XR-Pump-3            PUMP        95.00     0  00:50              1.00
  XR-Pump-4            PUMP        95.00     0  00:10              1.00
  
  
  ***************************
  Flow Classification Summary
  ***************************
  
  -------------------------------------------------------------------------------------
                      Adjusted    ---------- Fraction of Time in Flow Class ---------- 
                       /Actual         Up    Down  Sub   Sup   Up    Down  Norm  Inlet 
  Conduit               Length    Dry  Dry   Dry   Crit  Crit  Crit  Crit  Ltd   Ctrl  
  -------------------------------------------------------------------------------------
  WS02003066WSF200        1.00   0.05  0.00  0.00  0.00  0.95  0.00  0.00  0.64  0.00
  WS02006287WS02006284    1.00   0.03  0.01  0.00  0.58  0.38  0.00  0.00  0.70  0.00
  WS02006284WS02006280    1.00   0.04  0.00  0.00  0.00  0.00  0.00  0.96  0.00  0.00
  WS02006280WS02006229    1.00   0.04  0.00  0.00  0.00  0.00  0.00  0.96  0.00  0.00
  WS02006229WS02006228    1.00   0.00  0.00  0.00  1.00  0.00  0.00  0.00  0.00  0.00
  WS02006256WS02006235    1.00   0.00  0.00  0.00  1.00  0.00  0.00  0.00  0.00  0.00
  WS02006253WS02006251    1.00   0.03  0.01  0.00  0.96  0.00  0.00  0.00  0.00  0.00
  WS02006252WS02006251    1.00   0.07  0.00  0.00  0.00  0.00  0.93  0.00  0.00  0.00
  WS02006251WS02006249    1.00   0.00  0.00  0.00  1.00  0.00  0.00  0.00  0.24  0.00
  WS02006249WS02006248    1.00   0.00  0.01  0.00  0.92  0.00  0.07  0.00  0.00  0.00
  WS02006248WS02006247    1.00   0.01  0.00  0.00  0.98  0.00  0.00  0.01  0.12  0.00
  WS02006247WS02006245    1.00   0.01  0.00  0.00  0.99  0.00  0.00  0.00  0.00  0.00
  WS02006245WS02006243    1.00   0.01  0.00  0.00  0.96  0.00  0.00  0.03  0.01  0.00
  WS02006243WS02006242    1.00   0.00  0.00  0.00  0.99  0.00  0.00  0.00  0.19  0.00
  WS02006242WS02006240    1.00   0.00  0.00  0.00  1.00  0.00  0.00  0.00  0.00  0.00
  WS02006240WS02006239    1.00   0.00  0.00  0.00  0.97  0.00  0.00  0.03  0.01  0.00
  WS02006239WS02006238    1.00   0.00  0.00  0.00  1.00  0.00  0.00  0.00  0.00  0.00
  WS02006238WS02006235    1.00   0.00  0.00  0.00  1.00  0.00  0.00  0.00  0.00  0.00
  WS02006235WS02006234    1.00   0.00  0.00  0.00  0.97  0.00  0.03  0.00  0.00  0.00
  WS02006234WS02006232    1.00   0.00  0.00  0.00  1.00  0.00  0.00  0.00  0.00  0.00
  WS02006232WS02006231    1.00   0.00  0.00  0.00  1.00  0.00  0.00  0.00  0.00  0.00
  WS02006231WS02006230    1.00   0.00  0.00  0.00  0.49  0.00  0.51  0.00  0.00  0.00
  WS02006230WS02006229    1.00   0.00  0.00  0.00  0.99  0.00  0.00  0.01  0.01  0.00
  WS02006228WS02006109    1.00   0.00  0.00  0.00  1.00  0.00  0.00  0.00  0.00  0.00
  WS02006116WS02004401    1.00   0.02  0.00  0.00  0.98  0.00  0.00  0.00  0.00  0.00
  WS02006115WS02006116    1.00   0.02  0.00  0.00  0.98  0.00  0.00  0.00  0.00  0.00
  WS02006113WS02006111    1.00   0.01  0.00  0.00  0.00  0.99  0.00  0.00  0.12  0.00
  WS02006112WS02006115    1.00   0.01  0.01  0.00  0.98  0.00  0.00  0.00  0.00  0.00
  WS02006111WS02006112    1.00   0.01  0.00  0.00  0.98  0.00  0.00  0.00  0.94  0.00
  WS02006110WS02006113    1.00   0.00  0.01  0.00  0.99  0.00  0.00  0.00  0.00  0.00
  WS02006109WS02006110    1.00   0.00  0.00  0.00  0.99  0.00  0.01  0.00  0.00  0.00
  WS02004411WS02004412    1.00   0.03  0.00  0.00  0.97  0.00  0.00  0.00  0.00  0.00
  WS02004401WS02004402    1.00   0.02  0.00  0.00  0.98  0.00  0.00  0.00  0.00  0.00
  WS02004413WS02003067    1.00   0.03  0.01  0.00  0.00  0.00  0.96  0.00  0.00  0.00
  WS02004412WS02004413    1.00   0.03  0.00  0.00  0.97  0.00  0.00  0.00  0.02  0.00
  WS02004410WS02004411    1.00   0.03  0.00  0.00  0.97  0.00  0.00  0.00  0.02  0.00
  WS02004409WS02004410    1.00   0.03  0.00  0.00  0.97  0.00  0.00  0.00  0.03  0.00
  WS02004407WS02004409    1.00   0.03  0.00  0.00  0.97  0.00  0.00  0.00  0.92  0.00
  WS02004406WS02004407    1.00   0.00  0.03  0.00  0.97  0.00  0.00  0.00  0.00  0.00
  WS02004405WS02004406    1.00   0.00  0.00  0.00  1.00  0.00  0.00  0.00  0.01  0.00
  WS02004404WS02004405    1.00   0.00  0.00  0.00  1.00  0.00  0.00  0.00  0.00  0.00
  WS02004403WS02004404    1.00   0.00  0.02  0.00  0.98  0.00  0.00  0.00  0.00  0.00
  WS02004402WS02004403    1.00   0.02  0.00  0.00  0.98  0.00  0.00  0.00  0.00  0.00
  WS02004139WS02001211    1.00   0.00  0.00  0.00  1.00  0.00  0.00  0.00  0.00  0.00
  WS02004138WS02004139    1.00   0.00  0.00  0.00  0.99  0.01  0.00  0.00  0.99  0.00
  WS02003067WS02003066    1.00   0.04  0.00  0.00  0.95  0.00  0.00  0.00  0.00  0.00
  WS02001213WS02003059    1.00   0.00  0.00  0.00  1.00  0.00  0.00  0.00  0.00  0.00
  WS02001212WS02001213    1.00   0.00  0.00  0.00  0.91  0.00  0.09  0.00  0.00  0.00
  WS02001211WS02001212    1.00   0.00  0.00  0.00  1.00  0.00  0.00  0.00  0.00  0.00
  WS02003072WS02003073    1.00   0.00  0.00  0.00  0.00  0.00  0.00  1.00  0.00  0.00
  WS02003069WS02003072    1.00   0.00  0.00  0.00  1.00  0.00  0.00  0.00  0.22  0.00
  WS02003060WS02003069    1.00   0.00  0.00  0.00  0.99  0.01  0.00  0.00  0.03  0.00
  WS02003059WS02003060    1.00   0.00  0.00  0.00  1.00  0.00  0.00  0.00  0.01  0.00
  HS02004901HS02004770    1.00   0.04  0.00  0.00  0.96  0.00  0.00  0.00  0.00  0.00
  HS02004876HS02004881    1.00   0.01  0.00  0.00  0.95  0.05  0.00  0.00  0.00  0.00
  HS02004870HS02004876    1.00   0.00  0.00  0.00  0.99  0.01  0.00  0.00  0.95  0.00
  HS02004842HS02004848    1.00   0.00  0.04  0.00  0.96  0.00  0.00  0.00  0.61  0.00
  HS02004837HS02004842    1.00   0.00  0.00  0.00  1.00  0.00  0.00  0.00  0.11  0.00
  HS02004830HS02004837    1.00   0.00  0.00  0.00  1.00  0.00  0.00  0.00  0.99  0.00
  HS02004824HS02004830    1.00   0.00  0.00  0.00  1.00  0.00  0.00  0.00  0.00  0.00
  HS02004817HS02004824    1.00   0.00  0.00  0.00  1.00  0.00  0.00  0.00  1.00  0.00
  HS02004770HS02004777    1.00   0.00  0.04  0.00  0.96  0.00  0.00  0.00  0.03  0.00
  HS02004799HS02004480    1.00   0.00  0.02  0.00  0.96  0.00  0.02  0.00  0.00  0.00
  HS02004792HS02004799    1.00   0.00  0.00  0.00  1.00  0.00  0.00  0.00  0.98  0.00
  HS02004788HS02004792    1.00   0.00  0.00  0.00  1.00  0.00  0.00  0.00  0.98  0.00
  HS02004785HS02004788    1.00   0.00  0.00  0.00  1.00  0.00  0.00  0.00  0.00  0.00
  HS02004777HS02004785    1.00   0.00  0.00  0.00  1.00  0.00  0.00  0.00  0.14  0.00
  HS02004480HS02004478    1.00   0.04  0.00  0.00  0.63  0.00  0.00  0.33  0.00  0.00
  HS02004479HS02004480    1.00   0.02  0.00  0.00  0.98  0.00  0.00  0.00  0.12  0.00
  HS02004862HS02004870    1.00   0.00  0.00  0.00  1.00  0.00  0.00  0.00  0.05  0.00
  HS02004848HS02004852    1.00   0.04  0.00  0.00  0.96  0.00  0.00  0.00  0.72  0.00
  HS02004856HS02004862    1.00   0.00  0.05  0.00  0.95  0.00  0.00  0.00  0.81  0.00
  HS02004852HS02004856    1.00   0.04  0.00  0.00  0.96  0.00  0.00  0.00  0.86  0.00
  HS02004802HS02004478    1.00   0.04  0.00  0.00  0.96  0.00  0.00  0.00  0.02  0.00
  HS02004478WS02006287    1.00   0.04  0.00  0.00  0.72  0.24  0.00  0.00  0.68  0.00
  HS02004817HS02004807    1.00   0.00  0.04  0.00  0.96  0.00  0.00  0.00  0.01  0.00
  HS02004807HS02004802    1.00   0.04  0.00  0.00  0.96  0.00  0.00  0.00  0.00  0.00
  YS02001759YS02001757    1.00   0.00  0.00  0.00  1.00  0.00  0.00  0.00  0.16  0.00
  YS02001762YS02001759    1.00   0.00  0.00  0.00  1.00  0.00  0.00  0.00  0.03  0.00
  YS02001765YS02001762    1.00   0.00  0.00  0.00  1.00  0.00  0.00  0.00  0.16  0.00
  YS02001770YS02001767    1.00   0.00  0.00  0.00  1.00  0.00  0.00  0.00  0.00  0.00
  YS02001774YS02001770    1.00   0.00  0.04  0.00  0.96  0.00  0.00  0.00  0.03  0.00
  YS02001779YS02001774    1.00   0.00  0.00  0.00  1.00  0.00  0.00  0.00  0.20  0.00
  YS02001649YS02001757    1.00   0.00  0.00  0.00  1.00  0.00  0.00  0.00  0.16  0.00
  YS02001767YS02001765    1.00   0.00  0.00  0.00  1.00  0.00  0.00  0.00  0.01  0.00
  YS02006561YS02001783    1.00   0.05  0.00  0.00  0.40  0.54  0.00  0.00  0.61  0.00
  YS02001783YS02001784    1.00   0.00  0.05  0.00  0.95  0.00  0.00  0.00  0.01  0.00
  YS02001784YS02001785    1.00   0.00  0.00  0.00  1.00  0.00  0.00  0.00  0.19  0.00
  YS02001788YS02001790    1.00   0.00  0.00  0.00  0.41  0.59  0.00  0.00  0.55  0.00
  YS02001790YS02001791    1.00   0.00  0.00  0.00  0.37  0.63  0.00  0.00  0.42  0.00
  YS02001791YS02001793    1.00   0.00  0.00  0.00  0.39  0.61  0.00  0.00  0.02  0.00
  YS02001910YS02001907    1.00   0.00  0.00  0.00  0.98  0.00  0.00  0.02  0.12  0.00
  YS02001786YS02001788    1.00   0.00  0.00  0.00  0.39  0.61  0.00  0.00  0.00  0.00
  YS02001915YS02001910    1.00   0.00  0.00  0.00  0.98  0.02  0.00  0.00  0.18  0.00
  YS02001918YS02001915    1.00   0.00  0.00  0.00  0.98  0.01  0.00  0.00  0.62  0.00
  YS02001923YS02001920    1.00   0.00  0.00  0.00  1.00  0.00  0.00  0.00  0.89  0.00
  YS02001926YS02001923    1.00   0.00  0.03  0.00  0.05  0.00  0.92  0.00  0.00  0.00
  YS02001929YS02001926    1.00   0.00  0.04  0.00  0.96  0.00  0.00  0.00  0.87  0.00
  YS02001920YS02001918    1.00   0.00  0.00  0.00  1.00  0.00  0.00  0.00  0.00  0.00
  YS02001629YS02163301    1.00   0.04  0.00  0.00  0.95  0.00  0.00  0.00  0.00  0.00
  YS02001619YS02001622    1.00   0.04  0.00  0.00  0.96  0.00  0.00  0.00  0.00  0.00
  YS02001622YS02001625    1.00   0.04  0.00  0.00  0.96  0.00  0.00  0.00  0.07  0.00
  YS02001625YS02001629    1.00   0.04  0.01  0.00  0.93  0.00  0.02  0.00  0.00  0.00
  YS02163301YS02001633    1.00   0.00  0.04  0.00  0.96  0.00  0.00  0.00  0.00  0.00
  YS02163601YS02164001    1.00   0.00  0.03  0.00  0.97  0.00  0.00  0.00  0.00  0.00
  YS02164001YS02001641    1.00   0.00  0.03  0.00  0.97  0.00  0.00  0.00  0.06  0.00
  YS02001641YS02001644    1.00   0.00  0.00  0.00  1.00  0.00  0.00  0.00  0.00  0.00
  YS02001647YS02001649    1.00   0.00  0.05  0.00  0.95  0.00  0.00  0.00  0.01  0.00
  YS02006553YS02006556    1.00   0.00  0.00  0.00  1.00  0.00  0.00  0.00  0.03  0.00
  YS02006556YS02006558    1.00   0.00  0.00  0.00  1.00  0.00  0.00  0.00  0.00  0.00
  YSB6556YSB1171          1.00   0.02  0.01  0.00  0.96  0.00  0.00  0.00  0.00  0.00
  YS02001907YS02006553    1.00   0.00  0.01  0.00  0.99  0.00  0.00  0.00  0.00  0.00
  YS02006558YS02006561    1.00   0.05  0.00  0.00  0.09  0.86  0.00  0.00  0.53  0.00
  YS02001633YS02163601    1.00   0.00  0.00  0.00  1.00  0.00  0.00  0.00  0.15  0.00
  YS02001644YS02001647    1.00   0.00  0.05  0.00  0.95  0.00  0.00  0.00  0.00  0.00
  YS02001745YS02001748    1.00   0.00  0.00  0.00  0.89  0.01  0.00  0.10  0.04  0.00
  YS02001748YS02001751    1.00   0.00  0.00  0.00  0.97  0.03  0.00  0.00  0.14  0.00
  YS02001751YS02001754    1.00   0.00  0.00  0.00  0.94  0.00  0.00  0.05  0.02  0.00
  YS02001754YS02001757    1.00   0.00  0.00  0.00  1.00  0.00  0.00  0.00  0.20  0.00
  YS02001882YS02001884    1.00   0.04  0.00  0.00  0.96  0.00  0.00  0.00  0.00  0.00
  YS02001884YS02001887    1.00   0.03  0.01  0.00  0.96  0.00  0.00  0.00  0.00  0.00
  YS02001890YS02001895    1.00   0.00  0.04  0.00  0.95  0.00  0.00  0.00  0.00  0.00
  YS02001895YS02001898    1.00   0.05  0.00  0.00  0.95  0.00  0.01  0.00  0.00  0.00
  YS02001898YS02001901    1.00   0.05  0.00  0.00  0.95  0.00  0.00  0.00  0.03  0.00
  YS02001901YS02001904    1.00   0.05  0.00  0.00  0.95  0.00  0.00  0.00  0.00  0.00
  YS02001904YS02001907    1.00   0.00  0.05  0.00  0.95  0.00  0.00  0.00  0.00  0.00
  YS02001887YS02001890    1.00   0.00  0.00  0.00  0.98  0.00  0.02  0.00  0.00  0.00
  YS02001652YS02001649    1.00   0.00  0.00  0.00  1.00  0.00  0.00  0.00  0.18  0.00
  YS02001655YS02001652    1.00   0.00  0.00  0.00  0.94  0.00  0.00  0.05  0.02  0.00
  YS02001658YS02001655    1.00   0.00  0.04  0.00  0.93  0.03  0.00  0.00  0.10  0.00
  YS02001661YS02001658    1.00   0.04  0.00  0.00  0.89  0.07  0.00  0.00  0.06  0.00
  YS02001664YS02001661    1.00   0.04  0.00  0.00  0.86  0.10  0.00  0.00  0.21  0.00
  YSB1154YSB6556          1.00   0.04  0.00  0.00  0.96  0.00  0.00  0.00  0.02  0.00
  YSB1174YSB1171          1.00   0.03  0.01  0.00  0.97  0.00  0.00  0.00  0.00  0.00
  YSB1171HS02004479       1.00   0.02  0.00  0.00  0.97  0.00  0.00  0.00  0.11  0.00
  HS02004881HS02006253    1.00   0.03  0.00  0.00  0.91  0.00  0.00  0.06  0.73  0.00
  YS02001793JiankangQianchi    1.00   0.00  0.00  0.00  0.57  0.43  0.00  0.00  0.17  0.00
  YS02001757CaochengTiaoxuchi    1.00   0.00  0.07  0.00  0.91  0.02  0.00  0.00  0.00  0.00
  WSF200WS02003060        1.00   0.00  0.05  0.00  0.95  0.01  0.00  0.00  0.20  0.00
  1                       1.00   0.00  0.00  0.00  0.00  1.00  0.00  0.00  0.28  0.00
  2                       1.00   0.74  0.00  0.00  0.00  0.26  0.00  0.00  0.01  0.00
  3                       1.00   0.07  0.00  0.00  0.00  0.93  0.00  0.00  0.19  0.00
  4                       1.00   1.00  0.00  0.00  0.00  0.00  0.00  0.00  0.00  0.00
  
  
  *************************
  Conduit Surcharge Summary
  *************************
  
  ----------------------------------------------------------------------------
                                                           Hours        Hours 
                         --------- Hours Full --------   Above Full   Capacity
  Conduit                Both Ends  Upstream  Dnstream   Normal Flow   Limited
  ----------------------------------------------------------------------------
  WS02006229WS02006228        1.62      1.65      1.62      5.89         1.62
  WS02006256WS02006235        6.25      6.25      7.98      4.02         0.01
  WS02006252WS02006251        0.26      0.26      0.42      0.38         0.01
  WS02006251WS02006249        0.01      0.01      0.01      0.29         0.01
  WS02006249WS02006248        0.01      0.01      0.01      5.75         0.01
  WS02006247WS02006245        0.01      0.01      0.01      5.82         0.01
  WS02006243WS02006242        0.01      0.01      1.36      0.01         0.01
  WS02006242WS02006240        1.05      1.05      1.41      0.46         0.01
  WS02006240WS02006239        1.20      1.20      1.33      0.01         0.01
  WS02006239WS02006238        1.43      1.43      1.46      0.01         0.01
  WS02006238WS02006235        1.45      1.45      1.49      0.01         0.01
  WS02006235WS02006234        1.29      1.29      1.42      6.27         0.01
  WS02006234WS02006232        1.37      1.37      1.54      0.01         0.01
  WS02006232WS02006231        0.69      0.69      1.54      0.01         0.01
  WS02006231WS02006230        0.44      0.44      0.75      6.33         0.01
  WS02006230WS02006229        2.02      4.87      2.02      6.48         2.02
  WS02006228WS02006109        1.64      1.76      1.64      6.01         1.64
  WS02006112WS02006115        0.01      0.01      1.25      0.01         0.01
  WS02006111WS02006112        0.01      0.01      5.90      0.01         0.01
  WS02006110WS02006113        0.01      0.01      1.69      0.01         0.01
  WS02006109WS02006110        1.07      1.07      1.76      1.07         0.01
  WS02004406WS02004407        0.01      0.01      0.17      0.01         0.01
  WS02004405WS02004406        0.17      0.36      0.17      1.16         0.17
  WS02004404WS02004405        0.36      0.50      0.36      6.19         0.36
  WS02004403WS02004404        0.01      0.01      0.50      0.01         0.01
  WS02003072WS02003073        0.01      0.01      0.01      5.88         0.01
  YS02001759YS02001757        5.91      5.91      5.96      0.01         0.01
  YS02001762YS02001759        5.89      5.89      5.91      0.01         0.01
  YS02001765YS02001762        5.87      5.87      5.89      0.01         0.01
  YS02001770YS02001767        5.85      5.86      5.85      0.31         0.80
  YS02001774YS02001770        5.84      5.84      5.88      0.01         0.01
  YS02001779YS02001774        5.66      5.66      5.88      0.01         0.01
  YS02001649YS02001757        5.89      5.89      5.96      0.01         0.01
  YS02001767YS02001765        5.85      5.85      5.87      0.01         0.01
  YS02006561YS02001783        0.01      0.01      0.63      0.01         0.01
  YS02001783YS02001784        0.62      0.62      0.68      0.93         0.41
  YS02001784YS02001785        0.61      0.68      0.61      1.82         0.61
  YS02001788YS02001790        0.60      0.60      1.98      0.01         0.01
  YS02001790YS02001791        1.98      1.98      2.10      0.01         0.01
  YS02001791YS02001793        2.10      2.10      2.39      0.01         0.01
  YS02001910YS02001907        0.58      0.58      1.27      0.01         0.01
  YS02001786YS02001788        0.61      0.61      0.61      1.45         0.60
  YS02001915YS02001910        0.10      0.10      0.58      0.01         0.01
  YS02001918YS02001915        0.01      0.01      0.10      0.01         0.01
  YS02001629YS02163301        5.84      5.84      5.85      0.01         0.01
  YS02001619YS02001622        5.48      5.48      5.53      0.01         0.01
  YS02001622YS02001625        5.53      5.53      5.76      0.01         0.01
  YS02001625YS02001629        5.50      5.50      5.76      0.01         0.01
  YS02163301YS02001633        5.85      5.85      5.87      0.01         0.01
  YS02163601YS02164001        5.87      5.87      5.89      0.01         0.01
  YS02164001YS02001641        5.87      5.87      5.88      0.01         0.02
  YS02001641YS02001644        5.88      5.88      5.88      0.88         1.09
  YS02001647YS02001649        5.68      5.68      5.89      0.01         0.01
  YS02006553YS02006556        0.95      0.95      1.35      0.01         0.01
  YS02006556YS02006558        1.15      1.15      1.41      0.01         0.01
  YS02001907YS02006553        1.83      1.83      2.02      0.01         0.01
  YS02006558YS02006561        0.29      0.88      0.29      1.69         0.29
  YS02001633YS02163601        5.86      5.86      5.89      0.01         0.01
  YS02001644YS02001647        5.68      5.68      5.88      0.01         0.01
  YS02001745YS02001748        0.01      0.01      5.24      0.01         0.01
  YS02001748YS02001751        5.31      5.31      5.49      0.01         0.01
  YS02001751YS02001754        5.49      5.49      5.66      0.01         0.01
  YS02001754YS02001757        5.68      5.68      5.96      0.01         0.01
  YS02001882YS02001884        0.13      0.13      0.20      0.01         0.01
  YS02001884YS02001887        0.30      0.30      0.33      0.01         0.01
  YS02001890YS02001895        0.01      0.01      0.64      0.01         0.01
  YS02001895YS02001898        0.01      0.01      0.01      0.01         0.01
  YS02001898YS02001901        0.06      0.06      0.28      0.01         0.01
  YS02001901YS02001904        0.24      0.24      0.28      0.01         0.01
  YS02001904YS02001907        0.24      0.24      1.36      0.01         0.01
  YS02001887YS02001890        0.41      0.41      0.54      0.01         0.01
  YS02001652YS02001649        5.69      5.69      5.89      0.01         0.01
  YS02001655YS02001652        5.50      5.50      5.67      0.01         0.01
  YS02001658YS02001655        5.29      5.29      5.50      0.01         0.01
  YS02001661YS02001658        0.18      0.18      5.29      0.01         0.01
  YS02001664YS02001661        0.01      0.01      1.09      0.01         0.01
  YS02001793JiankangQianchi        2.32      2.32      3.51      0.01         0.01
  YS02001757CaochengTiaoxuchi        5.14      5.14      5.96      0.01         0.01
  
  
  ***************
  Pumping Summary
  ***************
  
  ---------------------------------------------------------------------------------------------------------
                                                  Min       Avg       Max     Total     Power    % Time Off
                        Percent   Number of      Flow      Flow      Flow    Volume     Usage    Pump Curve
  Pump                 Utilized   Start-Ups       LPS       LPS       LPS  10^6 ltr     Kw-hr    Low   High
  ---------------------------------------------------------------------------------------------------------
  CC-Pump-1               74.54           1      0.00    197.02    200.00     4.201      4.89    0.0    8.9
  CC-Pump-2                6.25           1      0.00    134.30    200.00     0.240      0.31    0.0    0.0
  JK-Pump-1               43.75           1      0.00    245.40    300.00     1.850     23.21    0.0    0.0
  JK-Pump-2               89.58           1      0.00    236.16    300.00     5.175     53.58    0.0    0.0
  XR-Pump-1               66.67           2      0.00     91.15     95.00     1.710     10.60    0.0    0.0
  XR-Pump-2               43.75           1      0.00     90.31     95.00     1.140     16.82    0.0    0.0
  XR-Pump-3               89.58           1      0.00     94.11     95.00     2.394     21.49    0.0    0.0
  XR-Pump-4               97.92           1      0.00     93.98     95.00     2.622     24.46    0.0    0.0
  

  Analysis begun on:  Wed Dec 15 10:38:48 2021
  Analysis ended on:  Wed Dec 15 10:38:52 2021
  Total elapsed time: 00:00:04