
  EPA STORM WATER MANAGEMENT MODEL - VERSION 5.1 (Build 5.3.0.dev0)
  --------------------------------------------------------------

  WARNING 04: minimum elevation drop used for Conduit WS02004404WS02004405
  WARNING 03: negative offset ignored for Link YS02001904YS02001907
  
  *********************************************************
  NOTE: The summary statistics displayed in this report are
  based on results found at every computational time step,  
  not just on results from each reporting time step.
  *********************************************************
  
  ****************
  Analysis Options
  ****************
  Flow Units ............... LPS
  Process Models:
    Rainfall/Runoff ........ YES
    RDII ................... NO
    Snowmelt ............... NO
    Groundwater ............ NO
    Flow Routing ........... YES
    Ponding Allowed ........ NO
    Water Quality .......... NO
  Infiltration Method ...... HORTON
  Flow Routing Method ...... DYNWAVE
  Surcharge Method ......... EXTRAN
  Starting Date ............ 08/28/2015 08:00:00
  Ending Date .............. 08/28/2015 15:50:00
  Antecedent Dry Days ...... 8.0
  Report Time Step ......... 00:01:00
  Wet Time Step ............ 00:01:00
  Dry Time Step ............ 00:01:00
  Routing Time Step ........ 5.00 sec
  Variable Time Step ....... YES
  Maximum Trials ........... 8
  Number of Threads ........ 4
  Head Tolerance ........... 0.001500 m
  
  
  **************************        Volume         Depth
  Runoff Quantity Continuity     hectare-m            mm
  **************************     ---------       -------
  Total Precipitation ......         0.567         1.242
  Evaporation Loss .........         0.000         0.000
  Infiltration Loss ........         0.132         0.290
  Surface Runoff ...........         0.054         0.119
  Final Storage ............         0.380         0.833
  Continuity Error (%) .....        -0.006
  
  
  **************************        Volume        Volume
  Flow Routing Continuity        hectare-m      10^6 ltr
  **************************     ---------     ---------
  Dry Weather Inflow .......         0.616         6.165
  Wet Weather Inflow .......         0.054         0.544
  Groundwater Inflow .......         0.000         0.000
  RDII Inflow ..............         0.000         0.000
  External Inflow ..........         0.102         1.024
  External Outflow .........         0.814         8.135
  Flooding Loss ............         0.000         0.001
  Evaporation Loss .........         0.000         0.000
  Exfiltration Loss ........         0.000         0.000
  Initial Stored Volume ....         0.076         0.761
  Final Stored Volume ......         0.093         0.934
  Continuity Error (%) .....        -6.790
  
  
  *************************
  Highest Continuity Errors
  *************************
  Node YS02001757 (88.83%)
  Node HS02004842 (82.25%)
  Node YS02001774 (74.77%)
  Node HS02004901 (71.43%)
  Node YS02001884 (63.38%)
  
  
  ***************************
  Time-Step Critical Elements
  ***************************
  Link WS02006280WS02006229 (71.17%)
  Link 3 (7.97%)
  Link WS02006238WS02006235 (1.49%)
  
  
  ********************************
  Highest Flow Instability Indexes
  ********************************
  Link WS02006238WS02006235 (7)
  Link WS02006256WS02006235 (5)
  Link WS02006229WS02006228 (3)
  Link YS02001754YS02001757 (3)
  Link WS02004404WS02004405 (3)
  
  
  *************************
  Routing Time Step Summary
  *************************
  Minimum Time Step           :     0.52 sec
  Average Time Step           :     4.29 sec
  Maximum Time Step           :     5.00 sec
  Percent in Steady State     :     0.00
  Average Iterations per Step :     2.01
  Percent Not Converging      :     0.09
  
  
  ***************************
  Subcatchment Runoff Summary
  ***************************
  
  ------------------------------------------------------------------------------------------------------------------------------
                            Total      Total      Total      Total     Imperv       Perv      Total       Total     Peak  Runoff
                           Precip      Runon       Evap      Infil     Runoff     Runoff     Runoff      Runoff   Runoff   Coeff
  Subcatchment                 mm         mm         mm         mm         mm         mm         mm    10^6 ltr      LPS
  ------------------------------------------------------------------------------------------------------------------------------
  sub0                       1.24       0.00       0.00       0.09       0.29       0.00       0.29        0.00     0.08   0.231
  sub1                       1.24       0.00       0.00       0.14       0.26       0.00       0.26        0.00     0.37   0.213
  sub2                       1.24       0.00       0.00       0.46       0.18       0.00       0.18        0.00     0.31   0.148
  sub3                       1.24       0.00       0.00       0.46       0.18       0.00       0.18        0.00     0.61   0.143
  sub4                       1.24       0.00       0.00       0.14       0.24       0.00       0.24        0.01     0.66   0.193
  sub5                       1.24       0.00       0.00       0.09       0.28       0.00       0.28        0.00     0.66   0.223
  sub7                       1.24       0.00       0.00       0.11       0.28       0.00       0.28        0.00     0.25   0.223
  sub8                       1.24       0.00       0.00       0.11       0.27       0.00       0.27        0.00     0.43   0.221
  sub9                       1.24       0.00       0.00       0.11       0.27       0.00       0.27        0.00     0.31   0.221
  sub10                      1.24       0.00       0.00       0.10       0.27       0.00       0.27        0.00     0.66   0.221
  sub11                      1.24       0.00       0.00       0.10       0.28       0.00       0.28        0.00     0.81   0.224
  sub12                      1.24       0.00       0.00       0.16       0.27       0.00       0.27        0.00     0.72   0.215
  sub14                      1.24       0.00       0.00       0.11       0.27       0.00       0.27        0.00     0.61   0.221
  sub15                      1.24       0.00       0.00       0.37       0.21       0.00       0.21        0.00     0.82   0.169
  sub16                      1.24       0.00       0.00       0.41       0.20       0.00       0.20        0.00     0.63   0.165
  sub17                      1.24       0.00       0.00       0.40       0.21       0.00       0.21        0.00     0.50   0.167
  sub22                      1.24       0.00       0.00       0.53       0.17       0.00       0.17        0.01     2.78   0.139
  sub23                      1.24       0.00       0.00       0.46       0.19       0.00       0.19        0.01     2.38   0.154
  sub60                      1.24       0.00       0.00       0.15       0.13       0.00       0.13        0.04     2.61   0.101
  sub61                      1.24       0.00       0.00       0.21       0.15       0.00       0.15        0.05     3.47   0.119
  sub62                      1.24       0.00       0.00       0.10       0.15       0.00       0.15        0.05     3.49   0.124
  sub63                      1.24       0.00       0.00       0.36       0.14       0.00       0.14        0.04     3.31   0.110
  sub64                      1.24       0.00       0.00       0.19       0.12       0.00       0.12        0.04     2.47   0.096
  sub65                      1.24       0.00       0.00       0.16       0.12       0.00       0.12        0.04     2.49   0.096
  sub66                      1.24       0.00       0.00       0.36       0.11       0.00       0.11        0.03     2.31   0.086
  sub67                      1.24       0.00       0.00       0.10       0.18       0.00       0.18        0.06     4.72   0.148
  sub68                      1.24       0.00       0.00       0.17       0.16       0.00       0.16        0.05     3.89   0.129
  sub69                      1.24       0.00       0.00       0.19       0.19       0.00       0.19        0.04     4.12   0.153
  sub70                      1.24       0.19       0.00       0.49       0.13       0.00       0.13        0.03     2.09   0.091
  sub71                      1.24       0.00       0.00       0.10       0.14       0.00       0.14        0.03     2.39   0.114
  sub72                      1.24       0.00       0.00       0.09       0.08       0.00       0.08        0.02     1.01   0.067
  sub73                      1.24       0.13       0.00       0.47       0.12       0.00       0.12        0.03     1.97   0.087
  sub74                      1.24       0.00       0.00       0.93       0.06       0.00       0.06        0.02     2.36   0.048
  
  
  ******************
  Node Depth Summary
  ******************
  
  ---------------------------------------------------------------------------------
                                 Average  Maximum  Maximum  Time of Max    Reported
                                   Depth    Depth      HGL   Occurrence   Max Depth
  Node                 Type       Meters   Meters   Meters  days hr:min      Meters
  ---------------------------------------------------------------------------------
  WS02001211           JUNCTION     0.62     0.76     5.60     0  05:50        0.76
  WS02001212           JUNCTION     0.35     0.45     5.52     0  05:50        0.45
  WS02001213           JUNCTION     0.51     0.67     5.43     0  05:50        0.67
  WS02003069           JUNCTION     0.28     0.38     4.97     0  05:52        0.38
  WS02003072           JUNCTION     0.34     0.45     4.82     0  05:52        0.45
  WS02003073           JUNCTION     0.20     0.27     4.33     0  05:53        0.27
  WS02003060           JUNCTION     0.25     0.34     5.27     0  05:51        0.34
  WS02003066           JUNCTION     0.08     0.13     5.69     0  04:09        0.13
  WS02003059           JUNCTION     0.56     0.71     5.40     0  05:51        0.71
  WS02003067           JUNCTION     0.25     0.39     5.71     0  04:09        0.39
  WS02004401           JUNCTION     0.33     0.43     6.43     0  04:04        0.43
  WS02004402           JUNCTION     0.37     0.46     6.42     0  04:04        0.46
  WS02004403           JUNCTION     0.39     0.49     6.42     0  04:04        0.49
  WS02004404           JUNCTION     0.46     0.57     6.42     0  04:04        0.57
  WS02004406           JUNCTION     0.48     0.59     6.42     0  04:05        0.59
  WS02004409           JUNCTION     0.13     0.21     5.98     0  04:06        0.21
  WS02004410           JUNCTION     0.16     0.25     5.97     0  04:10        0.25
  WS02004411           JUNCTION     0.18     0.28     5.96     0  04:11        0.28
  WS02004412           JUNCTION     0.21     0.31     5.95     0  04:08        0.31
  WS02004413           JUNCTION     0.33     0.48     5.95     0  04:09        0.48
  WS02004405           JUNCTION     0.46     0.57     6.42     0  04:05        0.57
  WS02006109           JUNCTION     0.37     0.44     7.06     0  03:55        0.44
  WS02006110           JUNCTION     0.40     0.47     7.05     0  03:55        0.47
  WS02006111           JUNCTION     0.07     0.10     6.81     0  03:56        0.10
  WS02006112           JUNCTION     0.45     0.55     6.44     0  04:02        0.55
  WS02006113           JUNCTION     0.10     0.14     7.03     0  03:56        0.14
  WS02006115           JUNCTION     0.22     0.29     6.43     0  04:03        0.29
  WS02006116           JUNCTION     0.30     0.39     6.43     0  04:03        0.39
  WS02006230           JUNCTION     0.27     0.32     7.07     0  03:55        0.32
  WS02006231           JUNCTION     0.13     0.29     7.41     0  00:05        0.28
  WS02006232           JUNCTION     0.22     0.40     7.44     0  00:05        0.39
  WS02006234           JUNCTION     0.11     0.28     7.44     0  00:05        0.28
  WS02006235           JUNCTION     0.14     0.32     7.49     0  00:04        0.32
  WS02006238           JUNCTION     0.16     0.34     7.49     0  00:05        0.34
  WS02006240           JUNCTION     0.04     0.18     7.47     0  00:05        0.18
  WS02006242           JUNCTION     0.06     0.22     7.49     0  00:06        0.22
  WS02006243           JUNCTION     0.02     0.07     7.49     0  00:07        0.07
  WS02006245           JUNCTION     0.03     0.04     7.53     0  02:37        0.04
  WS02006247           JUNCTION     0.03     0.05     7.55     0  02:35        0.05
  WS02006248           JUNCTION     0.02     0.03     7.62     0  02:33        0.03
  WS02006249           JUNCTION     0.03     0.05     7.65     0  02:32        0.05
  WS02006239           JUNCTION     0.10     0.27     7.48     0  00:02        0.27
  WS02006251           JUNCTION     0.02     0.04     7.71     0  07:50        0.04
  WS02006252           JUNCTION     0.00     0.12     8.36     0  07:50        0.12
  WS02006253           JUNCTION     0.04     0.07     7.71     0  02:26        0.07
  WS02006256           JUNCTION     0.44     2.35     9.28     0  00:00        1.19
  WS02004138           JUNCTION     0.15     0.19     7.44     0  05:40        0.19
  WS02004407           JUNCTION     0.06     0.10     6.41     0  04:05        0.10
  WS02006228           JUNCTION     0.34     0.41     7.06     0  03:56        0.41
  WS02006229           JUNCTION     0.31     0.37     7.06     0  03:56        0.37
  WS02006280           JUNCTION     0.03     0.04     8.31     0  02:26        0.04
  WS02006284           JUNCTION     0.28     0.34     8.74     0  02:26        0.34
  WS02006287           JUNCTION     0.04     0.06     9.02     0  02:25        0.06
  WSF200               JUNCTION     0.05     0.09     5.33     0  04:10        0.09
  HS02004901           JUNCTION     0.06     0.09     9.92     0  03:19        0.09
  HS02004881           JUNCTION     0.00     0.00     9.03     0  02:25        0.00
  HS02004876           JUNCTION     0.01     0.02     9.05     0  02:26        0.02
  HS02004870           JUNCTION     0.00     0.01     9.29     0  02:19        0.01
  HS02004862           JUNCTION     0.00     0.01     9.39     0  03:17        0.01
  HS02004856           JUNCTION     0.05     0.07     9.50     0  03:13        0.07
  HS02004852           JUNCTION     0.00     0.00     9.51     0  02:40        0.00
  HS02004848           JUNCTION     0.00     0.00     9.60     0  02:19        0.00
  HS02004842           JUNCTION     0.29     0.33     9.60     0  02:19        0.33
  HS02004837           JUNCTION     0.02     0.02     9.60     0  02:19        0.02
  HS02004830           JUNCTION     0.03     0.03     9.50     0  02:20        0.03
  HS02004824           JUNCTION     0.01     0.02     9.42     0  02:22        0.02
  HS02004817           JUNCTION     0.35     0.42     9.27     0  02:25        0.42
  HS02004807           JUNCTION     0.08     0.10     9.27     0  02:25        0.10
  HS02004802           JUNCTION     0.11     0.14     9.27     0  02:25        0.14
  HS02004799           JUNCTION     0.06     0.08     9.29     0  02:22        0.08
  HS02004792           JUNCTION     0.01     0.01     9.54     0  02:14        0.01
  HS02004788           JUNCTION     0.01     0.01     9.91     0  03:11        0.01
  HS02004785           JUNCTION     0.01     0.02     9.92     0  03:16        0.02
  HS02004777           JUNCTION     0.08     0.12     9.92     0  03:18        0.12
  HS02004770           JUNCTION     0.05     0.09     9.92     0  03:18        0.09
  HS02004480           JUNCTION     0.03     0.05     9.29     0  02:23        0.05
  HS02004479           JUNCTION     0.06     0.09     9.29     0  02:22        0.09
  HS02004478           JUNCTION     0.03     0.04     9.27     0  02:24        0.04
  YS02001745           JUNCTION     0.02     0.03     7.54     0  03:01        0.03
  YS02001748           JUNCTION     0.02     0.03     7.10     0  03:01        0.03
  YS02001751           JUNCTION     0.03     0.12     7.00     0  07:50        0.12
  YS02001754           JUNCTION     0.15     0.39     7.00     0  07:50        0.39
  YS02001762           JUNCTION     0.28     0.60     7.00     0  07:50        0.60
  YS02001765           JUNCTION     0.25     0.55     7.00     0  07:50        0.55
  YS02001767           JUNCTION     0.23     0.51     7.00     0  07:50        0.51
  YS02001770           JUNCTION     0.22     0.51     7.00     0  07:50        0.51
  YS02001774           JUNCTION     0.27     0.58     7.00     0  07:50        0.58
  YS02001779           JUNCTION     0.10     0.32     7.00     0  07:50        0.32
  YS02001882           JUNCTION     0.08     0.13     6.85     0  03:29        0.13
  YS02001884           JUNCTION     0.15     0.23     6.85     0  03:29        0.23
  YS02001759           JUNCTION     0.31     0.64     7.00     0  07:50        0.64
  YS02001887           JUNCTION     0.22     0.31     6.85     0  03:29        0.31
  YS02001890           JUNCTION     0.25     0.34     6.85     0  03:30        0.34
  YS02001898           JUNCTION     0.06     0.11     6.84     0  03:31        0.11
  YS02001901           JUNCTION     0.15     0.23     6.84     0  03:30        0.23
  YS02001904           JUNCTION     0.13     0.21     6.84     0  03:32        0.21
  YS02001907           JUNCTION     0.41     0.55     6.84     0  03:32        0.55
  YS02001910           JUNCTION     0.23     0.33     6.84     0  03:31        0.33
  YS02001915           JUNCTION     0.08     0.12     6.84     0  03:30        0.12
  YS02001918           JUNCTION     0.03     0.03     7.10     0  03:10        0.03
  YS02001619           JUNCTION     0.03     0.07     7.00     0  07:50        0.07
  YS02001629           JUNCTION     0.18     0.45     7.00     0  07:49        0.45
  YS02001641           JUNCTION     0.26     0.57     7.00     0  07:50        0.57
  YS02001644           JUNCTION     0.27     0.57     7.00     0  07:49        0.57
  YS02001652           JUNCTION     0.15     0.41     7.00     0  07:50        0.41
  YS02001655           JUNCTION     0.04     0.15     7.00     0  07:50        0.15
  YS02001920           JUNCTION     0.10     0.11     7.11     0  03:09        0.11
  YS02001923           JUNCTION     0.01     0.02     7.28     0  03:07        0.02
  YS02001926           JUNCTION     0.04     0.06     7.50     0  03:06        0.06
  YS02001929           JUNCTION     0.01     0.02     7.71     0  03:01        0.02
  YS02001658           JUNCTION     0.02     0.03     7.17     0  02:53        0.03
  YS02001661           JUNCTION     0.07     0.10     7.50     0  02:52        0.10
  YS02001664           JUNCTION     0.01     0.02     7.95     0  02:52        0.02
  YS02001622           JUNCTION     0.03     0.10     7.00     0  07:49        0.10
  YS02001633           JUNCTION     0.25     0.55     7.00     0  07:49        0.55
  YS02001649           JUNCTION     0.29     0.61     7.00     0  07:50        0.61
  YS02001757           JUNCTION     0.40     0.74     7.00     0  07:50        0.74
  YS02001895           JUNCTION     0.06     0.10     6.85     0  03:30        0.10
  YS02001625           JUNCTION     0.22     0.40     7.00     0  07:50        0.40
  YS02163301           JUNCTION     0.20     0.49     7.00     0  07:49        0.49
  YS02163601           JUNCTION     0.30     0.60     7.00     0  07:50        0.60
  YS02164001           JUNCTION     0.25     0.54     7.00     0  07:50        0.54
  YS02001647           JUNCTION     0.14     0.39     7.00     0  07:49        0.39
  YSB1154              JUNCTION     0.17     0.23     9.29     0  02:22        0.23
  YSB6556              JUNCTION     0.08     0.12     9.29     0  02:23        0.12
  YSB1174              JUNCTION     0.13     0.18     9.29     0  02:23        0.18
  YSB1171              JUNCTION     0.31     0.39     9.29     0  02:23        0.39
  YS02006553           JUNCTION     0.42     0.56     6.84     0  03:32        0.56
  YS02006561           JUNCTION     0.03     0.05     6.71     0  03:29        0.05
  YS02006556           JUNCTION     0.40     0.53     6.84     0  03:29        0.53
  YS02006558           JUNCTION     0.44     0.57     6.84     0  03:29        0.57
  YS02001783           JUNCTION     0.04     0.08     6.22     0  03:33        0.08
  YS02001784           JUNCTION     0.07     0.10     6.17     0  03:33        0.10
  YS02001786           JUNCTION     0.06     0.10     6.13     0  03:34        0.10
  YS02001788           JUNCTION     0.04     0.06     6.04     0  03:34        0.06
  YS02001790           JUNCTION     0.05     0.08     5.72     0  03:35        0.08
  YS02001791           JUNCTION     0.03     0.05     5.52     0  03:35        0.05
  YS02001793           JUNCTION     0.02     0.03     4.87     0  03:35        0.03
  WS02004139           JUNCTION     0.57     0.71     5.62     0  05:50        0.71
  WSC                  OUTFALL      0.19     0.27     0.94     0  05:53        0.27
  3                    OUTFALL      0.01     0.23     6.23     0  00:00        0.19
  4                    OUTFALL      0.00     0.00     7.00     0  00:00        0.00
  5                    OUTFALL      0.00     0.00     5.00     0  00:00        0.00
  JK-storage           STORAGE      0.12     3.00     3.80     0  00:00        2.39
  CC-storage           STORAGE      0.00     0.00     7.00     0  00:00        0.00
  XR-storage           STORAGE      2.24     5.00     3.00     0  00:00        4.96
  
  
  *******************
  Node Inflow Summary
  *******************
  
  -------------------------------------------------------------------------------------------------
                                  Maximum  Maximum                  Lateral       Total        Flow
                                  Lateral    Total  Time of Max      Inflow      Inflow     Balance
                                   Inflow   Inflow   Occurrence      Volume      Volume       Error
  Node                 Type           LPS      LPS  days hr:min    10^6 ltr    10^6 ltr     Percent
  -------------------------------------------------------------------------------------------------
  WS02001211           JUNCTION      7.35   387.52     0  05:50       0.207        6.82       0.427
  WS02001212           JUNCTION      0.00   387.34     0  05:50           0        6.79       0.238
  WS02001213           JUNCTION      0.00   387.26     0  05:50           0        6.78       0.264
  WS02003069           JUNCTION      0.32   446.88     0  05:52     0.00902        8.02       0.189
  WS02003072           JUNCTION      0.00   446.78     0  05:52           0           8       0.272
  WS02003073           JUNCTION      1.82   448.51     0  05:53      0.0514        8.03       0.289
  WS02003060           JUNCTION     16.53   446.62     0  05:51       0.466        8.02       0.196
  WS02003066           JUNCTION      0.00    54.17     0  04:09           0        0.83       0.201
  WS02003059           JUNCTION      0.00   387.14     0  05:51           0        6.76       0.417
  WS02003067           JUNCTION      0.00    54.18     0  04:09           0       0.834       0.568
  WS02004401           JUNCTION      0.00    54.49     0  04:01           0        0.95       1.213
  WS02004402           JUNCTION      0.00    54.43     0  04:02           0       0.939       1.236
  WS02004403           JUNCTION      0.00    54.40     0  04:03           0       0.927       1.202
  WS02004404           JUNCTION      0.16    54.53     0  04:04     0.00457       0.921       0.983
  WS02004406           JUNCTION      0.00    54.54     0  04:04           0       0.899       2.510
  WS02004409           JUNCTION      0.00    54.52     0  04:05           0       0.875       0.468
  WS02004410           JUNCTION      0.00    54.45     0  04:06           0       0.871       0.666
  WS02004411           JUNCTION      0.00    54.37     0  04:07           0       0.865       0.807
  WS02004412           JUNCTION      0.00    54.30     0  04:07           0       0.858       1.044
  WS02004413           JUNCTION      0.00    54.23     0  04:08           0        0.85       1.802
  WS02004405           JUNCTION      0.04    54.56     0  04:04     0.00107       0.913       1.519
  WS02006109           JUNCTION      1.23    94.08     0  00:06      0.0347        1.01       1.296
  WS02006110           JUNCTION      0.00    57.88     0  00:07           0       0.994       0.936
  WS02006111           JUNCTION      0.00    54.78     0  03:56           0       0.983       0.121
  WS02006112           JUNCTION      0.50    54.81     0  03:56     0.00178       0.983       1.713
  WS02006113           JUNCTION      0.00    54.78     0  03:55           0       0.985       0.239
  WS02006115           JUNCTION      0.00    54.68     0  03:58           0       0.967       0.826
  WS02006116           JUNCTION      0.00    54.57     0  04:00           0       0.959       0.915
  WS02006230           JUNCTION     10.28   103.74     0  00:05        0.29       0.746       0.816
  WS02006231           JUNCTION      0.00    99.47     0  00:05           0       0.457       0.274
  WS02006232           JUNCTION      0.00   113.53     0  00:03           0       0.464       1.355
  WS02006234           JUNCTION      0.00   124.98     0  00:03           0       0.463      -0.200
  WS02006235           JUNCTION      0.00   177.52     0  00:01           0       0.494       0.724
  WS02006238           JUNCTION      0.00    96.52     0  00:00           0      0.0543       1.710
  WS02006240           JUNCTION      0.00    43.67     0  00:02           0      0.0269       0.324
  WS02006242           JUNCTION      0.00    31.17     0  00:04           0      0.0198       2.632
  WS02006243           JUNCTION      0.00    10.32     0  00:06           0      0.0149       0.751
  WS02006245           JUNCTION      0.00     1.51     0  02:35           0      0.0141       1.463
  WS02006247           JUNCTION      0.00     1.52     0  02:33           0      0.0142       0.646
  WS02006248           JUNCTION      0.00     1.52     0  02:32           0      0.0142       0.269
  WS02006249           JUNCTION      0.00     2.28     0  07:50           0      0.0146       2.679
  WS02006239           JUNCTION      0.00    75.77     0  00:01           0      0.0383       1.615
  WS02006251           JUNCTION      0.08     5.82     0  07:50     0.00217       0.015       2.308
  WS02006252           JUNCTION      0.00     5.98     0  07:50           0    0.000598      27.679
  WS02006253           JUNCTION      0.08     1.47     0  02:25    0.000232      0.0126       1.739
  WS02006256           JUNCTION      0.00   600.00     0  00:00           0       0.586       0.163
  WS02004138           JUNCTION      0.00   380.00     0  05:40           0        6.64       0.065
  WS02004407           JUNCTION      0.00    54.52     0  04:05           0       0.877       0.231
  WS02006228           JUNCTION      0.00    95.42     0  00:06           0        0.98       0.776
  WS02006229           JUNCTION      0.00   101.15     0  00:06           0       0.985       0.469
  WS02006280           JUNCTION      0.00    16.47     0  02:26           0       0.245       0.031
  WS02006284           JUNCTION      0.10    16.48     0  02:25      0.0027       0.246       0.471
  WS02006287           JUNCTION      0.00    16.39     0  02:24           0       0.244       0.276
  WSF200               JUNCTION      0.00    54.17     0  04:09           0       0.828       0.139
  HS02004901           JUNCTION      0.63     0.65     0  02:12     0.00214     0.00242     250.005
  HS02004881           JUNCTION      0.25     1.42     0  02:24    0.000932      0.0123       0.367
  HS02004876           JUNCTION      0.37     1.28     0  02:18     0.00176      0.0118       3.724
  HS02004870           JUNCTION      0.43     0.92     0  02:16     0.00175      0.0101       0.859
  HS02004862           JUNCTION      0.51     0.58     0  03:11     0.00735     0.00852       1.680
  HS02004856           JUNCTION      0.31     0.43     0  02:26     0.00132     0.00257     121.228
  HS02004852           JUNCTION      0.00     0.20     0  02:33           0     0.00127       1.450
  HS02004848           JUNCTION      0.61     0.61     0  02:22       0.004       0.004       0.400
  HS02004842           JUNCTION      0.00     4.47     0  00:03           0      0.0158     463.501
  HS02004837           JUNCTION      7.01     7.44     0  02:18       0.182       0.185       0.440
  HS02004830           JUNCTION      0.15     7.59     0  02:19     0.00423       0.175       0.702
  HS02004824           JUNCTION      0.71     8.29     0  02:22     0.00642        0.18       0.293
  HS02004817           JUNCTION      0.60     8.89     0  02:22      0.0169       0.197       9.224
  HS02004807           JUNCTION      0.81     9.59     0  02:22     0.00323       0.183       2.339
  HS02004802           JUNCTION      0.00     9.58     0  02:25           0       0.179       2.309
  HS02004799           JUNCTION      0.61     5.99     0  02:14     0.00261      0.0774       2.844
  HS02004792           JUNCTION      3.06     5.39     0  02:13      0.0188      0.0752       0.539
  HS02004788           JUNCTION      2.49     2.70     0  03:09      0.0507      0.0577       0.656
  HS02004785           JUNCTION      0.15     1.06     0  02:43     0.00423     0.00957       4.389
  HS02004777           JUNCTION      0.03     1.51     0  02:09    0.000846     0.00951     115.323
  HS02004770           JUNCTION      2.38     2.38     0  02:12     0.00912     0.00981      45.049
  HS02004480           JUNCTION      0.00     6.89     0  02:21           0      0.0807       0.669
  HS02004479           JUNCTION      0.00     2.64     0  01:43           0      0.0157       4.732
  HS02004478           JUNCTION      0.00    16.39     0  02:24           0       0.245       0.333
  YS02001745           JUNCTION      2.61     2.61     0  03:01      0.0381      0.0381       0.172
  YS02001748           JUNCTION      0.04     2.66     0  03:01     0.00127      0.0393       0.102
  YS02001751           JUNCTION      0.01     2.67     0  03:01     0.00031      0.0396       4.739
  YS02001754           JUNCTION      0.26     2.93     0  03:02     0.00733      0.0451      22.830
  YS02001762           JUNCTION      0.00     2.84     0  04:05           0      0.0298      77.233
  YS02001765           JUNCTION      0.00     2.43     0  02:20           0      0.0266     103.230
  YS02001767           JUNCTION      0.54     3.39     0  02:34      0.0151      0.0355     105.379
  YS02001770           JUNCTION      3.64     3.64     0  03:01      0.0515       0.052      42.393
  YS02001774           JUNCTION      0.00     1.85     0  04:07           0      0.0186     296.331
  YS02001779           JUNCTION      0.01     0.77     0  04:39    0.000141     0.00483    5212.587
  YS02001882           JUNCTION      0.00     0.52     0  02:22           0    0.000974     363.171
  YS02001884           JUNCTION      0.00     1.63     0  02:22           0     0.00447     173.072
  YS02001759           JUNCTION      3.51     4.03     0  03:29      0.0465       0.056      37.589
  YS02001887           JUNCTION      5.17     5.17     0  02:49      0.0694      0.0701       7.517
  YS02001890           JUNCTION      0.00     4.62     0  03:14           0      0.0609       9.969
  YS02001898           JUNCTION      0.00     4.36     0  03:25           0      0.0541       1.844
  YS02001901           JUNCTION      0.00     4.41     0  03:28           0      0.0552       6.638
  YS02001904           JUNCTION      0.00     4.44     0  03:28           0      0.0564       6.115
  YS02001907           JUNCTION      0.00    10.57     0  03:25           0       0.176      11.798
  YS02001910           JUNCTION      0.00     6.70     0  02:51           0        0.13       6.112
  YS02001915           JUNCTION      2.41     6.35     0  03:01      0.0341       0.133       1.608
  YS02001918           JUNCTION      0.00     3.96     0  03:09           0      0.0988       0.379
  YS02001619           JUNCTION      2.31     2.31     0  03:01      0.0328      0.0328       1.250
  YS02001629           JUNCTION      0.00     2.00     0  03:48           0      0.0219      35.523
  YS02001641           JUNCTION      0.00     4.06     0  03:07           0      0.0253      90.136
  YS02001644           JUNCTION      2.51     5.20     0  03:07      0.0373       0.046      46.520
  YS02001652           JUNCTION      0.00     3.46     0  02:54           0      0.0425      24.539
  YS02001655           JUNCTION      0.15     3.46     0  02:53     0.00434       0.045       5.787
  YS02001920           JUNCTION      2.87     3.97     0  03:07      0.0809      0.0999       1.106
  YS02001923           JUNCTION      0.04     1.10     0  03:06     0.00106       0.019       0.284
  YS02001926           JUNCTION      0.05     1.07     0  03:01     0.00147      0.0184       2.557
  YS02001929           JUNCTION      1.01     1.01     0  03:01      0.0169      0.0169       0.235
  YS02001658           JUNCTION      0.00     3.31     0  02:52           0      0.0407       0.131
  YS02001661           JUNCTION      0.00     3.31     0  02:52           0      0.0411       1.046
  YS02001664           JUNCTION      3.31     3.31     0  02:51      0.0412      0.0412       0.092
  YS02001622           JUNCTION      0.00     2.30     0  03:01           0      0.0324       6.341
  YS02001633           JUNCTION      2.69     3.97     0  03:54      0.0424      0.0517      50.205
  YS02001649           JUNCTION      0.00     5.40     0  03:08           0      0.0479      87.994
  YS02001757           JUNCTION      0.00     6.28     0  02:28           0      0.0752     795.215
  YS02001895           JUNCTION      0.00     4.42     0  03:18           0      0.0554       2.338
  YS02001625           JUNCTION      0.00     2.97     0  03:44           0      0.0313      63.208
  YS02163301           JUNCTION      0.00     2.13     0  06:41           0       0.022     107.504
  YS02163601           JUNCTION      0.11     3.27     0  03:41      0.0031      0.0346     110.986
  YS02164001           JUNCTION      0.00     2.96     0  03:06           0      0.0237      87.190
  YS02001647           JUNCTION      0.00     3.68     0  03:08           0      0.0234      89.838
  YSB1154              JUNCTION      0.66     1.59     0  01:15     0.00313      0.0047      43.820
  YSB6556              JUNCTION      0.00     2.09     0  01:22           0      0.0059      26.075
  YSB1174              JUNCTION      0.72     1.06     0  01:17     0.00233      0.0035      57.055
  YSB1171              JUNCTION      0.00     2.75     0  01:17           0      0.0152      70.614
  YS02006553           JUNCTION      0.00    10.55     0  03:28           0       0.161       8.177
  YS02006561           JUNCTION      0.00    14.60     0  03:29           0       0.201       0.090
  YS02006556           JUNCTION      0.00    10.51     0  03:28           0       0.161       5.617
  YS02006558           JUNCTION      4.77    14.62     0  03:28      0.0741       0.219       1.674
  YS02001783           JUNCTION      0.00    14.59     0  03:29           0         0.2       0.211
  YS02001784           JUNCTION      1.06    15.65     0  03:33      0.0299        0.23       0.337
  YS02001786           JUNCTION      0.06    15.70     0  03:33     0.00159       0.231       0.377
  YS02001788           JUNCTION      0.07    15.76     0  03:34       0.002       0.232       0.182
  YS02001790           JUNCTION      0.15    15.92     0  03:34     0.00437       0.236       0.233
  YS02001791           JUNCTION      0.00    15.92     0  03:35           0       0.235       0.109
  YS02001793           JUNCTION      0.00    15.91     0  03:35           0       0.235       0.048
  WS02004139           JUNCTION      0.32   380.39     0  05:40     0.00905        6.65       0.490
  WSC                  OUTFALL       0.00   448.38     0  05:53           0        8.01       0.000
  3                    OUTFALL       0.00   597.65     0  00:00           0       0.128       0.000
  4                    OUTFALL       0.00     0.00     0  00:00           0           0       0.000 ltr
  5                    OUTFALL       0.00     0.00     0  00:00           0           0       0.000 ltr
  JK-storage           STORAGE       0.00    15.91     0  03:35           0       0.386     -33.997
  CC-storage           STORAGE       0.00     5.98     0  07:50           0    0.000598       0.000
  XR-storage           STORAGE     204.25   204.25     0  02:46        5.69        6.29      -5.453
  
  
  **********************
  Node Surcharge Summary
  **********************
  
  Surcharging occurs when water rises above the top of the highest conduit.
  ---------------------------------------------------------------------
                                               Max. Height   Min. Depth
                                   Hours       Above Crown    Below Rim
  Node                 Type      Surcharged         Meters       Meters
  ---------------------------------------------------------------------
  WS02006256           JUNCTION        0.01          1.050        0.000
  
  
  *********************
  Node Flooding Summary
  *********************
  
  Flooding refers to all water that overflows a node, whether it ponds or not.
  --------------------------------------------------------------------------
                                                             Total   Maximum
                                 Maximum   Time of Max       Flood    Ponded
                        Hours       Rate    Occurrence      Volume     Depth
  Node                 Flooded       LPS   days hr:min    10^6 ltr    Meters
  --------------------------------------------------------------------------
  WS02006256              0.01    406.11      0  00:00       0.001     0.000
  
  
  **********************
  Storage Volume Summary
  **********************
  
  --------------------------------------------------------------------------------------------------
                         Average     Avg  Evap Exfil       Maximum     Max    Time of Max    Maximum
                          Volume    Pcnt  Pcnt  Pcnt        Volume    Pcnt     Occurrence    Outflow
  Storage Unit           1000 m3    Full  Loss  Loss       1000 m3    Full    days hr:min        LPS
  --------------------------------------------------------------------------------------------------
  JK-storage               0.006       2     0     0         0.151      52       0  00:00     600.00
  CC-storage               0.000       0     0     0         0.000       0       0  00:00       5.98
  XR-storage               0.268      29     0     0         0.600      65       0  00:00     380.00
  
  
  ***********************
  Outfall Loading Summary
  ***********************
  
  -----------------------------------------------------------
                         Flow       Avg       Max       Total
                         Freq      Flow      Flow      Volume
  Outfall Node           Pcnt       LPS       LPS    10^6 ltr
  -----------------------------------------------------------
  WSC                   99.97    264.05    448.38       8.007
  3                      7.98    436.83    597.65       0.128
  4                      0.00      0.00      0.00       0.000
  5                      0.00      0.00      0.00       0.000
  -----------------------------------------------------------
  System                26.99    700.88    597.72       8.135
  
  
  ********************
  Link Flow Summary
  ********************
  
  -----------------------------------------------------------------------------
                                 Maximum  Time of Max   Maximum    Max/    Max/
                                  |Flow|   Occurrence   |Veloc|    Full    Full
  Link                 Type          LPS  days hr:min     m/sec    Flow   Depth
  -----------------------------------------------------------------------------
  WS02003066WSF200     CONDUIT     54.17     0  04:09      1.48    0.01    0.07
  WS02006287WS02006284 CONDUIT     16.38     0  02:25      0.60    0.01    0.08
  WS02006284WS02006280 CONDUIT     16.47     0  02:26      0.87    0.01    0.06
  WS02006280WS02006229 CONDUIT     16.47     0  02:26      1.39    0.00    0.04
  WS02006229WS02006228 CONDUIT     95.42     0  00:06      0.85    0.32    0.47
  WS02006256WS02006235 CONDUIT    177.52     0  00:01      2.73    1.88    1.00
  WS02006253WS02006251 CONDUIT      1.46     0  02:26      0.13    0.00    0.07
  WS02006252WS02006251 CONDUIT      5.74     0  07:50      0.33    0.02    0.20
  WS02006251WS02006249 CONDUIT      2.28     0  07:50      0.25    0.01    0.06
  WS02006249WS02006248 CONDUIT      1.52     0  02:32      0.19    0.01    0.05
  WS02006248WS02006247 CONDUIT      1.52     0  02:33      0.23    0.00    0.05
  WS02006247WS02006245 CONDUIT      1.51     0  02:35      0.17    0.01    0.06
  WS02006245WS02006243 CONDUIT      1.51     0  02:38      0.25    0.00    0.05
  WS02006243WS02006242 CONDUIT     10.32     0  00:06      0.24    0.02    0.18
  WS02006242WS02006240 CONDUIT     31.17     0  00:04      0.67    0.12    0.28
  WS02006240WS02006239 CONDUIT     43.67     0  00:02      0.60    0.14    0.29
  WS02006239WS02006238 CONDUIT     75.77     0  00:01      0.69    0.24    0.42
  WS02006238WS02006235 CONDUIT     96.52     0  00:00      1.32    0.22    0.48
  WS02006235WS02006234 CONDUIT    124.98     0  00:03      0.94    1.32    0.41
  WS02006234WS02006232 CONDUIT    113.53     0  00:03      1.17    0.23    0.49
  WS02006232WS02006231 CONDUIT     99.47     0  00:05      0.64    0.21    0.48
  WS02006231WS02006230 CONDUIT     93.47     0  00:05      0.82    1.42    0.34
  WS02006230WS02006229 CONDUIT    101.15     0  00:06      0.86    2.25    0.46
  WS02006228WS02006109 CONDUIT     92.85     0  00:06      0.76    0.41    0.52
  WS02006116WS02004401 CONDUIT     54.49     0  04:01      0.45    0.08    0.41
  WS02006115WS02006116 CONDUIT     54.57     0  04:00      0.56    0.07    0.31
  WS02006113WS02006111 CONDUIT     54.78     0  03:56      1.17    0.07    0.15
  WS02006112WS02006115 CONDUIT     54.68     0  03:58      0.18    0.03    0.42
  WS02006111WS02006112 CONDUIT     54.78     0  03:56      0.95    0.03    0.39
  WS02006110WS02006113 CONDUIT     54.78     0  03:55      0.31    0.05    0.38
  WS02006109WS02006110 CONDUIT     57.88     0  00:07      0.51    0.11    0.50
  WS02004411WS02004412 CONDUIT     54.30     0  04:07      0.44    0.08    0.30
  WS02004401WS02004402 CONDUIT     54.43     0  04:02      0.48    0.07    0.45
  WS02004413WS02003067 CONDUIT     54.18     0  04:09      0.28    0.02    0.29
  WS02004412WS02004413 CONDUIT     54.23     0  04:08      0.39    0.04    0.40
  WS02004410WS02004411 CONDUIT     54.37     0  04:07      0.39    0.07    0.26
  WS02004409WS02004410 CONDUIT     54.45     0  04:06      0.42    0.07    0.23
  WS02004407WS02004409 CONDUIT     54.52     0  04:05      0.71    0.02    0.15
  WS02004406WS02004407 CONDUIT     54.52     0  04:05      0.23    0.02    0.34
  WS02004405WS02004406 CONDUIT     54.54     0  04:04      0.40    0.11    0.58
  WS02004404WS02004405 CONDUIT     54.52     0  04:04      0.49    0.53    0.57
  WS02004403WS02004404 CONDUIT     54.37     0  04:04      0.52    0.04    0.53
  WS02004402WS02004403 CONDUIT     54.40     0  04:03      0.52    0.08    0.48
  WS02004139WS02001211 CONDUIT    380.17     0  05:50      0.80    0.48    0.57
  WS02004138WS02004139 CONDUIT    380.07     0  05:40      3.34    0.08    0.42
  WS02003067WS02003066 CONDUIT     54.17     0  04:09      0.30    0.02    0.22
  WS02001213WS02003059 CONDUIT    387.14     0  05:51      0.80    0.64    0.68
  WS02001212WS02001213 CONDUIT    387.26     0  05:50      1.32    0.60    0.40
  WS02001211WS02001212 CONDUIT    387.34     0  05:50      0.78    0.30    0.61
  WS02003072WS02003073 CONDUIT    446.69     0  05:53      1.33    0.96    0.34
  WS02003069WS02003072 CONDUIT    446.78     0  05:52      1.28    0.22    0.35
  WS02003060WS02003069 CONDUIT    446.56     0  05:52      1.56    0.17    0.30
  WS02003059WS02003060 CONDUIT    387.02     0  05:51      0.92    0.25    0.53
  HS02004901HS02004770 CONDUIT      0.30     0  02:43      0.03    0.00    0.13
  HS02004876HS02004881 CONDUIT      1.22     0  02:26      0.09    0.01    0.02
  HS02004870HS02004876 CONDUIT      0.91     0  02:19      0.07    0.00    0.02
  HS02004842HS02004848 CONDUIT      0.44     0  02:19      0.00    0.00    0.24
  HS02004837HS02004842 CONDUIT      4.47     0  00:03      0.41    0.00    0.25
  HS02004830HS02004837 CONDUIT      7.44     0  02:19      0.27    0.01    0.04
  HS02004824HS02004830 CONDUIT      7.59     0  02:21      0.31    0.01    0.03
  HS02004817HS02004824 CONDUIT      8.29     0  02:22      0.17    0.00    0.31
  HS02004770HS02004777 CONDUIT      1.38     0  02:43      0.03    0.00    0.15
  HS02004799HS02004480 CONDUIT      5.79     0  02:18      0.10    0.01    0.09
  HS02004792HS02004799 CONDUIT      5.37     0  02:14      0.23    0.00    0.07
  HS02004788HS02004792 CONDUIT      2.69     0  03:11      0.26    0.00    0.02
  HS02004785HS02004788 CONDUIT      0.77     0  03:16      0.06    0.01    0.02
  HS02004777HS02004785 CONDUIT      0.90     0  02:49      0.07    0.00    0.10
  HS02004480HS02004478 CONDUIT      6.83     0  02:23      0.22    0.03    0.04
  HS02004479HS02004480 CONDUIT      2.64     0  01:43      0.16    0.00    0.10
  HS02004862HS02004870 CONDUIT      0.55     0  03:18      0.11    0.00    0.01
  HS02004848HS02004852 CONDUIT      0.20     0  02:33      0.00    0.00    0.00
  HS02004856HS02004862 CONDUIT      0.23     0  03:13      0.05    0.00    0.01
  HS02004852HS02004856 CONDUIT      0.19     0  02:40      0.01    0.00    0.05
  HS02004802HS02004478 CONDUIT      9.59     0  02:26      0.10    0.01    0.13
  HS02004478WS02006287 CONDUIT     16.39     0  02:24      0.39    0.00    0.05
  HS02004817HS02004807 CONDUIT      8.89     0  02:26      0.05    0.01    0.38
  HS02004807HS02004802 CONDUIT      9.58     0  02:25      0.19    0.02    0.17
  YS02001759YS02001757 CONDUIT      3.23     0  03:07      0.12    0.00    0.69
  YS02001762YS02001759 CONDUIT      2.84     0  04:05      0.17    0.00    0.62
  YS02001765YS02001762 CONDUIT      2.11     0  04:06      0.20    0.00    0.58
  YS02001770YS02001767 CONDUIT      2.86     0  02:34      0.16    0.01    0.51
  YS02001774YS02001770 CONDUIT      1.85     0  04:07      0.12    0.00    0.53
  YS02001779YS02001774 CONDUIT      0.76     0  04:39      0.01    0.00    0.45
  YS02001649YS02001757 CONDUIT      3.75     0  07:50      0.09    0.00    0.68
  YS02001767YS02001765 CONDUIT      2.43     0  02:20      0.23    0.00    0.53
  YS02006561YS02001783 CONDUIT     14.59     0  03:29      0.78    0.01    0.08
  YS02001783YS02001784 CONDUIT     14.59     0  03:33      0.46    0.02    0.11
  YS02001784YS02001785 CONDUIT     15.64     0  03:33      0.43    0.04    0.13
  YS02001788YS02001790 CONDUIT     15.76     0  03:34      0.76    0.01    0.09
  YS02001790YS02001791 CONDUIT     15.92     0  03:35      0.87    0.02    0.08
  YS02001791YS02001793 CONDUIT     15.91     0  03:35      1.57    0.01    0.05
  YS02001910YS02001907 CONDUIT      6.43     0  03:03      0.49    0.00    0.44
  YS02001786YS02001788 CONDUIT     15.69     0  03:34      0.62    0.03    0.10
  YS02001915YS02001910 CONDUIT      6.70     0  02:51      0.44    0.00    0.23
  YS02001918YS02001915 CONDUIT      3.96     0  03:10      0.44    0.00    0.08
  YS02001923YS02001920 CONDUIT      1.10     0  03:07      0.06    0.00    0.06
  YS02001926YS02001923 CONDUIT      1.06     0  03:06      0.14    0.00    0.03
  YS02001929YS02001926 CONDUIT      1.01     0  03:01      0.11    0.00    0.04
  YS02001920YS02001918 CONDUIT      3.96     0  03:09      0.16    0.00    0.07
  YS02001629YS02163301 CONDUIT      2.05     0  03:54      0.03    0.00    0.47
  YS02001619YS02001622 CONDUIT      2.30     0  03:01      0.24    0.00    0.09
  YS02001622YS02001625 CONDUIT      2.97     0  03:44      0.13    0.00    0.25
  YS02001625YS02001629 CONDUIT      2.00     0  03:48      0.02    0.00    0.24
  YS02163301YS02001633 CONDUIT      2.13     0  06:41      0.03    0.00    0.52
  YS02163601YS02164001 CONDUIT      2.46     0  03:55      0.02    0.00    0.57
  YS02164001YS02001641 CONDUIT      2.96     0  03:06      0.06    0.00    0.56
  YS02001641YS02001644 CONDUIT      4.06     0  03:07      0.03    0.01    0.57
  YS02001647YS02001649 CONDUIT      3.68     0  03:08      0.05    0.00    0.50
  YS02006553YS02006556 CONDUIT     10.51     0  03:28      0.18    0.01    0.52
  YS02006556YS02006558 CONDUIT     10.48     0  03:35      0.07    0.01    0.55
  YSB6556YSB1171       CONDUIT      2.09     0  01:22      0.03    0.00    0.36
  YS02001907YS02006553 CONDUIT     10.55     0  03:28      0.06    0.01    0.60
  YS02006558YS02006561 CONDUIT     14.60     0  03:29      0.94    0.03    0.10
  YS02001633YS02163601 CONDUIT      3.16     0  03:41      0.06    0.00    0.57
  YS02001644YS02001647 CONDUIT      3.11     0  07:50      0.05    0.00    0.48
  YS02001745YS02001748 CONDUIT      2.61     0  03:01      0.60    0.00    0.02
  YS02001748YS02001751 CONDUIT      2.66     0  03:01      0.43    0.00    0.07
  YS02001751YS02001754 CONDUIT      2.67     0  03:02      0.54    0.00    0.23
  YS02001754YS02001757 CONDUIT      3.25     0  03:34      0.33    0.00    0.57
  YS02001882YS02001884 CONDUIT      0.52     0  02:22      0.04    0.00    0.15
  YS02001884YS02001887 CONDUIT      1.63     0  02:22      0.02    0.00    0.24
  YS02001890YS02001895 CONDUIT      4.42     0  03:18      0.03    0.00    0.22
  YS02001895YS02001898 CONDUIT      4.36     0  03:25      0.19    0.01    0.09
  YS02001898YS02001901 CONDUIT      4.41     0  03:28      0.05    0.00    0.17
  YS02001901YS02001904 CONDUIT      4.44     0  03:28      0.15    0.01    0.22
  YS02001904YS02001907 CONDUIT      4.40     0  03:31      0.02    0.00    0.38
  YS02001887YS02001890 CONDUIT      4.62     0  03:14      0.10    0.01    0.30
  YS02001652YS02001649 CONDUIT      3.50     0  03:04      0.21    0.00    0.51
  YS02001655YS02001652 CONDUIT      3.46     0  02:54      0.54    0.00    0.26
  YS02001658YS02001655 CONDUIT      3.31     0  02:53      0.49    0.00    0.08
  YS02001661YS02001658 CONDUIT      3.31     0  02:52      0.54    0.00    0.03
  YS02001664YS02001661 CONDUIT      3.31     0  02:52      0.17    0.00    0.06
  YSB1154YSB6556       CONDUIT      1.59     0  01:15      0.19    0.00    0.25
  YSB1174YSB1171       CONDUIT      1.05     0  01:17      0.02    0.00    0.37
  YSB1171HS02004479    CONDUIT      2.57     0  01:40      0.54    0.00    0.26
  HS02004881HS02006253 CONDUIT      1.42     0  02:25      0.45    0.00    0.00
  YS02001793JiankangQianchi CONDUIT     15.91     0  03:35      5.37    0.00    0.50
  YS02001757CaochengTiaoxuchi CONDUIT      5.98     0  07:50      0.02    0.00    0.37
  WSF200WS02003060     CONDUIT     54.17     0  04:10      0.62    0.01    0.18
  1                    CONDUIT    448.38     0  05:53      2.66    0.16    0.27
  2                    CONDUIT      0.00     0  00:00      0.00    0.00    0.00
  3                    CONDUIT    597.65     0  00:00     10.05    0.95    0.86
  4                    CONDUIT      0.00     0  00:00      0.00    0.00    0.00
  CC-Pump-1            PUMP         5.98     0  07:50              0.03
  CC-Pump-2            PUMP         0.00     0  00:00              0.00
  JK-Pump-1            PUMP       300.00     0  00:00              1.00
  JK-Pump-2            PUMP       300.00     0  00:00              1.00
  XR-Pump-1            PUMP        95.00     0  00:00              1.00
  XR-Pump-2            PUMP        95.00     0  01:10              1.00
  XR-Pump-3            PUMP        95.00     0  00:00              1.00
  XR-Pump-4            PUMP        95.00     0  00:00              1.00
  
  
  ***************************
  Flow Classification Summary
  ***************************
  
  -------------------------------------------------------------------------------------
                      Adjusted    ---------- Fraction of Time in Flow Class ---------- 
                       /Actual         Up    Down  Sub   Sup   Up    Down  Norm  Inlet 
  Conduit               Length    Dry  Dry   Dry   Crit  Crit  Crit  Crit  Ltd   Ctrl  
  -------------------------------------------------------------------------------------
  WS02003066WSF200        1.00   0.32  0.02  0.00  0.00  0.67  0.00  0.00  0.70  0.00
  WS02006287WS02006284    1.00   0.16  0.07  0.00  0.76  0.00  0.00  0.00  0.81  0.00
  WS02006284WS02006280    1.00   0.19  0.00  0.00  0.00  0.00  0.00  0.81  0.00  0.00
  WS02006280WS02006229    1.00   0.19  0.00  0.00  0.00  0.00  0.00  0.81  0.00  0.00
  WS02006229WS02006228    1.00   0.00  0.00  0.00  0.92  0.00  0.00  0.08  0.00  0.00
  WS02006256WS02006235    1.00   0.00  0.00  0.00  0.98  0.02  0.00  0.00  0.00  0.00
  WS02006253WS02006251    1.00   0.12  0.06  0.00  0.81  0.00  0.01  0.00  0.00  0.00
  WS02006252WS02006251    1.00   0.99  0.00  0.00  0.00  0.00  0.01  0.00  0.00  0.00
  WS02006251WS02006249    1.00   0.00  0.00  0.00  1.00  0.00  0.00  0.00  0.98  0.00
  WS02006249WS02006248    1.00   0.01  0.08  0.00  0.00  0.00  0.91  0.00  0.00  0.00
  WS02006248WS02006247    1.00   0.09  0.00  0.00  0.86  0.00  0.00  0.05  0.87  0.00
  WS02006247WS02006245    1.00   0.09  0.00  0.00  0.82  0.00  0.00  0.08  0.00  0.00
  WS02006245WS02006243    1.00   0.08  0.00  0.00  0.69  0.00  0.00  0.22  0.01  0.00
  WS02006243WS02006242    1.00   0.05  0.02  0.00  0.93  0.00  0.00  0.00  0.98  0.00
  WS02006242WS02006240    1.00   0.03  0.00  0.00  0.97  0.00  0.00  0.00  0.00  0.00
  WS02006240WS02006239    1.00   0.01  0.00  0.00  0.68  0.00  0.00  0.30  0.17  0.00
  WS02006239WS02006238    1.00   0.00  0.00  0.00  0.99  0.00  0.00  0.00  0.01  0.00
  WS02006238WS02006235    1.00   0.00  0.00  0.00  0.99  0.01  0.00  0.00  0.00  0.00
  WS02006235WS02006234    1.00   0.00  0.00  0.00  0.65  0.00  0.35  0.00  0.00  0.00
  WS02006234WS02006232    1.00   0.00  0.00  0.00  0.98  0.02  0.00  0.00  0.14  0.00
  WS02006232WS02006231    1.00   0.00  0.02  0.00  0.95  0.00  0.03  0.00  0.00  0.00
  WS02006231WS02006230    1.00   0.02  0.00  0.00  0.00  0.00  0.98  0.00  0.00  0.00
  WS02006230WS02006229    1.00   0.00  0.00  0.00  0.92  0.00  0.00  0.08  0.01  0.00
  WS02006228WS02006109    1.00   0.01  0.00  0.00  0.98  0.00  0.00  0.02  0.00  0.00
  WS02006116WS02004401    1.00   0.10  0.00  0.00  0.90  0.00  0.00  0.00  0.00  0.00
  WS02006115WS02006116    1.00   0.10  0.00  0.00  0.84  0.00  0.00  0.06  0.01  0.00
  WS02006113WS02006111    1.00   0.09  0.00  0.00  0.00  0.91  0.00  0.00  0.00  0.00
  WS02006112WS02006115    1.00   0.09  0.01  0.00  0.89  0.00  0.01  0.00  0.00  0.00
  WS02006111WS02006112    1.00   0.09  0.00  0.00  0.90  0.00  0.00  0.00  0.98  0.00
  WS02006110WS02006113    1.00   0.08  0.01  0.00  0.91  0.00  0.00  0.00  0.00  0.00
  WS02006109WS02006110    1.00   0.00  0.07  0.00  0.91  0.00  0.01  0.00  0.00  0.00
  WS02004411WS02004412    1.00   0.25  0.00  0.00  0.75  0.00  0.00  0.00  0.00  0.00
  WS02004401WS02004402    1.00   0.10  0.00  0.00  0.90  0.00  0.00  0.00  0.00  0.00
  WS02004413WS02003067    1.00   0.25  0.06  0.00  0.00  0.00  0.69  0.00  0.00  0.00
  WS02004412WS02004413    1.00   0.25  0.00  0.00  0.75  0.00  0.00  0.00  0.03  0.00
  WS02004410WS02004411    1.00   0.24  0.00  0.00  0.76  0.00  0.00  0.00  0.02  0.00
  WS02004409WS02004410    1.00   0.24  0.00  0.00  0.76  0.00  0.00  0.00  0.02  0.00
  WS02004407WS02004409    1.00   0.24  0.00  0.00  0.75  0.01  0.00  0.00  0.80  0.00
  WS02004406WS02004407    1.00   0.01  0.23  0.00  0.76  0.00  0.00  0.00  0.00  0.00
  WS02004405WS02004406    1.00   0.00  0.00  0.00  1.00  0.00  0.00  0.00  0.02  0.00
  WS02004404WS02004405    1.00   0.00  0.00  0.00  1.00  0.00  0.00  0.00  0.00  0.00
  WS02004403WS02004404    1.00   0.00  0.11  0.00  0.89  0.00  0.00  0.00  0.02  0.00
  WS02004402WS02004403    1.00   0.11  0.00  0.00  0.89  0.00  0.00  0.00  0.00  0.00
  WS02004139WS02001211    1.00   0.00  0.00  0.00  0.97  0.00  0.03  0.00  0.00  0.00
  WS02004138WS02004139    1.00   0.00  0.00  0.00  0.94  0.05  0.00  0.01  1.00  0.00
  WS02003067WS02003066    1.00   0.31  0.02  0.00  0.67  0.00  0.00  0.00  0.00  0.00
  WS02001213WS02003059    1.00   0.02  0.02  0.00  0.96  0.00  0.00  0.00  0.00  0.00
  WS02001212WS02001213    1.00   0.03  0.01  0.00  0.02  0.00  0.95  0.00  0.00  0.00
  WS02001211WS02001212    1.00   0.00  0.02  0.00  0.98  0.00  0.00  0.00  0.00  0.00
  WS02003072WS02003073    1.00   0.00  0.00  0.00  0.00  0.00  0.00  1.00  0.00  0.00
  WS02003069WS02003072    1.00   0.00  0.00  0.00  0.96  0.04  0.00  0.00  0.86  0.00
  WS02003060WS02003069    1.00   0.00  0.00  0.00  0.93  0.07  0.00  0.00  0.44  0.00
  WS02003059WS02003060    1.00   0.00  0.00  0.00  0.97  0.03  0.00  0.00  0.01  0.00
  HS02004901HS02004770    1.00   0.19  0.01  0.00  0.80  0.00  0.00  0.00  0.05  0.00
  HS02004876HS02004881    1.00   0.09  0.00  0.00  0.91  0.00  0.00  0.00  0.00  0.00
  HS02004870HS02004876    1.00   0.04  0.00  0.00  0.95  0.01  0.00  0.00  0.95  0.00
  HS02004842HS02004848    1.00   0.00  0.21  0.00  0.79  0.00  0.00  0.00  0.84  0.00
  HS02004837HS02004842    1.00   0.00  0.00  0.00  0.95  0.05  0.00  0.00  0.11  0.00
  HS02004830HS02004837    1.00   0.00  0.00  0.00  0.99  0.01  0.00  0.00  0.99  0.00
  HS02004824HS02004830    1.00   0.00  0.00  0.00  1.00  0.00  0.00  0.00  0.00  0.00
  HS02004817HS02004824    1.00   0.00  0.00  0.00  1.00  0.00  0.00  0.00  1.00  0.00
  HS02004770HS02004777    1.00   0.00  0.20  0.00  0.80  0.00  0.00  0.00  0.08  0.00
  HS02004799HS02004480    1.00   0.02  0.08  0.00  0.73  0.00  0.16  0.00  0.00  0.00
  HS02004792HS02004799    1.00   0.00  0.00  0.00  0.93  0.07  0.00  0.00  0.98  0.00
  HS02004788HS02004792    1.00   0.00  0.00  0.00  0.93  0.07  0.00  0.00  0.98  0.00
  HS02004785HS02004788    1.00   0.00  0.00  0.00  1.00  0.00  0.00  0.00  0.00  0.00
  HS02004777HS02004785    1.00   0.00  0.00  0.00  1.00  0.00  0.00  0.00  0.30  0.00
  HS02004480HS02004478    1.00   0.24  0.00  0.00  0.74  0.00  0.02  0.00  0.00  0.00
  HS02004479HS02004480    1.00   0.11  0.00  0.00  0.89  0.00  0.00  0.00  0.17  0.00
  HS02004862HS02004870    1.00   0.00  0.00  0.00  1.00  0.00  0.00  0.00  0.07  0.00
  HS02004848HS02004852    1.00   0.21  0.00  0.00  0.79  0.00  0.00  0.00  0.66  0.00
  HS02004856HS02004862    1.00   0.00  0.42  0.00  0.58  0.00  0.00  0.00  0.62  0.00
  HS02004852HS02004856    1.00   0.19  0.06  0.00  0.74  0.00  0.00  0.00  0.79  0.00
  HS02004802HS02004478    1.00   0.19  0.03  0.00  0.77  0.00  0.00  0.00  0.00  0.00
  HS02004478WS02006287    1.00   0.24  0.00  0.00  0.76  0.00  0.00  0.00  0.80  0.00
  HS02004817HS02004807    1.00   0.00  0.19  0.00  0.81  0.00  0.00  0.00  0.00  0.00
  HS02004807HS02004802    1.00   0.19  0.00  0.00  0.80  0.00  0.00  0.01  0.01  0.00
  YS02001759YS02001757    1.00   0.00  0.00  0.00  1.00  0.00  0.00  0.00  0.17  0.00
  YS02001762YS02001759    1.00   0.00  0.01  0.00  0.99  0.00  0.00  0.00  0.08  0.00
  YS02001765YS02001762    1.00   0.00  0.00  0.00  1.00  0.00  0.00  0.00  0.27  0.00
  YS02001770YS02001767    1.00   0.00  0.00  0.00  1.00  0.00  0.00  0.00  0.00  0.00
  YS02001774YS02001770    1.00   0.02  0.26  0.00  0.72  0.00  0.00  0.00  0.07  0.00
  YS02001779YS02001774    1.00   0.00  0.00  0.00  1.00  0.00  0.00  0.00  0.43  0.00
  YS02001649YS02001757    1.00   0.00  0.01  0.00  0.99  0.00  0.00  0.00  0.20  0.00
  YS02001767YS02001765    1.00   0.00  0.00  0.00  1.00  0.00  0.00  0.00  0.02  0.00
  YS02006561YS02001783    1.00   0.37  0.00  0.00  0.00  0.62  0.00  0.00  0.65  0.00
  YS02001783YS02001784    1.00   0.00  0.38  0.00  0.62  0.00  0.00  0.00  0.66  0.00
  YS02001784YS02001785    1.00   0.00  0.00  0.00  1.00  0.00  0.00  0.00  0.34  0.00
  YS02001788YS02001790    1.00   0.00  0.00  0.00  0.40  0.60  0.00  0.00  1.00  0.00
  YS02001790YS02001791    1.00   0.00  0.00  0.00  0.08  0.92  0.00  0.00  0.00  0.00
  YS02001791YS02001793    1.00   0.00  0.00  0.00  0.00  0.99  0.00  0.00  0.00  0.00
  YS02001910YS02001907    1.00   0.01  0.00  0.00  0.90  0.00  0.00  0.09  0.13  0.00
  YS02001786YS02001788    1.00   0.00  0.00  0.00  1.00  0.00  0.00  0.00  0.00  0.00
  YS02001915YS02001910    1.00   0.00  0.00  0.00  0.99  0.01  0.00  0.00  0.30  0.00
  YS02001918YS02001915    1.00   0.00  0.04  0.00  0.93  0.02  0.00  0.00  0.76  0.00
  YS02001923YS02001920    1.00   0.00  0.00  0.00  1.00  0.00  0.00  0.00  1.00  0.00
  YS02001926YS02001923    1.00   0.00  0.14  0.00  0.00  0.00  0.86  0.00  0.00  0.00
  YS02001929YS02001926    1.00   0.00  0.20  0.00  0.80  0.00  0.00  0.00  0.86  0.00
  YS02001920YS02001918    1.00   0.00  0.04  0.00  0.96  0.00  0.00  0.00  0.00  0.00
  YS02001629YS02163301    1.00   0.31  0.03  0.00  0.66  0.00  0.00  0.00  0.00  0.00
  YS02001619YS02001622    1.00   0.19  0.00  0.00  0.81  0.00  0.00  0.00  0.32  0.00
  YS02001622YS02001625    1.00   0.20  0.00  0.00  0.80  0.00  0.00  0.00  0.26  0.00
  YS02001625YS02001629    1.00   0.20  0.25  0.00  0.17  0.00  0.37  0.00  0.00  0.00
  YS02163301YS02001633    1.00   0.00  0.31  0.00  0.69  0.00  0.00  0.00  0.00  0.00
  YS02163601YS02164001    1.00   0.00  0.14  0.00  0.86  0.00  0.00  0.00  0.00  0.00
  YS02164001YS02001641    1.00   0.06  0.08  0.00  0.85  0.00  0.00  0.00  0.07  0.00
  YS02001641YS02001644    1.00   0.00  0.05  0.00  0.95  0.00  0.00  0.00  0.00  0.00
  YS02001647YS02001649    1.00   0.01  0.39  0.00  0.60  0.00  0.00  0.00  0.02  0.00
  YS02006553YS02006556    1.00   0.08  0.00  0.00  0.92  0.00  0.00  0.00  0.03  0.00
  YS02006556YS02006558    1.00   0.00  0.02  0.00  0.98  0.00  0.00  0.00  0.00  0.00
  YSB6556YSB1171          1.00   0.11  0.07  0.00  0.82  0.00  0.00  0.00  0.00  0.00
  YS02001907YS02006553    1.00   0.02  0.07  0.00  0.91  0.00  0.00  0.00  0.00  0.00
  YS02006558YS02006561    1.00   0.37  0.00  0.00  0.00  0.62  0.00  0.00  0.00  0.00
  YS02001633YS02163601    1.00   0.00  0.06  0.00  0.94  0.00  0.00  0.00  0.21  0.00
  YS02001644YS02001647    1.00   0.00  0.40  0.00  0.60  0.00  0.00  0.00  0.00  0.00
  YS02001745YS02001748    1.00   0.00  0.00  0.00  0.00  0.00  0.00  1.00  0.00  0.00
  YS02001748YS02001751    1.00   0.00  0.00  0.00  0.71  0.29  0.00  0.00  0.69  0.00
  YS02001751YS02001754    1.00   0.00  0.00  0.00  0.52  0.01  0.00  0.47  0.30  0.00
  YS02001754YS02001757    1.00   0.00  0.00  0.00  0.95  0.05  0.00  0.00  0.38  0.00
  YS02001882YS02001884    1.00   0.29  0.03  0.00  0.69  0.00  0.00  0.00  0.00  0.00
  YS02001884YS02001887    1.00   0.13  0.05  0.00  0.83  0.00  0.00  0.00  0.00  0.00
  YS02001890YS02001895    1.00   0.02  0.31  0.00  0.67  0.00  0.00  0.00  0.00  0.00
  YS02001895YS02001898    1.00   0.33  0.01  0.00  0.62  0.00  0.04  0.00  0.00  0.00
  YS02001898YS02001901    1.00   0.29  0.06  0.00  0.66  0.00  0.00  0.00  0.02  0.00
  YS02001901YS02001904    1.00   0.29  0.00  0.00  0.71  0.00  0.00  0.00  0.00  0.00
  YS02001904YS02001907    1.00   0.02  0.27  0.00  0.71  0.00  0.00  0.00  0.00  0.00
  YS02001887YS02001890    1.00   0.00  0.02  0.00  0.90  0.00  0.08  0.00  0.00  0.00
  YS02001652YS02001649    1.00   0.00  0.00  0.00  1.00  0.00  0.00  0.00  0.37  0.00
  YS02001655YS02001652    1.00   0.00  0.00  0.00  0.55  0.01  0.00  0.44  0.28  0.00
  YS02001658YS02001655    1.00   0.00  0.28  0.00  0.30  0.41  0.00  0.00  0.75  0.00
  YS02001661YS02001658    1.00   0.28  0.00  0.00  0.00  0.71  0.00  0.00  0.73  0.00
  YS02001664YS02001661    1.00   0.19  0.00  0.00  0.81  0.00  0.00  0.00  0.86  0.00
  YSB1154YSB6556          1.00   0.18  0.00  0.00  0.82  0.00  0.00  0.00  0.03  0.00
  YSB1174YSB1171          1.00   0.12  0.04  0.00  0.84  0.00  0.00  0.00  0.00  0.00
  YSB1171HS02004479       1.00   0.11  0.00  0.00  0.88  0.00  0.00  0.01  0.14  0.00
  HS02004881HS02006253    1.00   0.12  0.00  0.00  0.00  0.00  0.00  0.88  0.00  0.00
  YS02001793JiankangQianchi    1.00   0.00  0.01  0.00  0.07  0.92  0.00  0.00  0.02  0.00
  YS02001757CaochengTiaoxuchi    1.00   0.00  0.99  0.00  0.01  0.00  0.00  0.00  0.00  0.00
  WSF200WS02003060        1.00   0.00  0.32  0.00  0.68  0.00  0.00  0.00  0.71  0.00
  1                       1.00   0.00  0.00  0.00  0.00  1.00  0.00  0.00  0.43  0.00
  2                       1.00   1.00  0.00  0.00  0.00  0.00  0.00  0.00  0.00  0.00
  3                       1.00   0.92  0.00  0.00  0.00  0.08  0.00  0.00  0.00  0.00
  4                       1.00   1.00  0.00  0.00  0.00  0.00  0.00  0.00  0.00  0.00
  
  
  *************************
  Conduit Surcharge Summary
  *************************
  
  ----------------------------------------------------------------------------
                                                           Hours        Hours 
                         --------- Hours Full --------   Above Full   Capacity
  Conduit                Both Ends  Upstream  Dnstream   Normal Flow   Limited
  ----------------------------------------------------------------------------
  WS02006256WS02006235        0.04      0.04      7.07      0.08         0.01
  WS02006235WS02006234        0.01      0.01      0.01      0.06         0.01
  WS02006231WS02006230        0.01      0.01      0.01      0.04         0.01
  WS02006230WS02006229        0.01      0.01      0.01      0.10         0.01
  YS02001793JiankangQianchi        0.01      0.01      0.04      0.01         0.01
  3                           0.01      0.01      0.01      0.01         0.01
  
  
  ***************
  Pumping Summary
  ***************
  
  ---------------------------------------------------------------------------------------------------------
                                                  Min       Avg       Max     Total     Power    % Time Off
                        Percent   Number of      Flow      Flow      Flow    Volume     Usage    Pump Curve
  Pump                 Utilized   Start-Ups       LPS       LPS       LPS  10^6 ltr     Kw-hr    Low   High
  ---------------------------------------------------------------------------------------------------------
  CC-Pump-1                1.01           1      0.00      2.59      5.98     0.001      0.00    0.0  100.0
  CC-Pump-2                0.00           0      0.00      0.00      0.00     0.000      0.00    0.0    0.0
  JK-Pump-1               82.98           6      0.00     36.22    300.00     0.282      4.87    0.0    0.0
  JK-Pump-2               83.00           5      0.00     37.09    300.00     0.302      5.20    0.0    0.0
  XR-Pump-1               82.96           5      0.00     72.83     95.00     1.653     33.38    0.0    0.0
  XR-Pump-2               76.61           6      0.00     68.57     95.00     1.482     30.75    0.0    0.0
  XR-Pump-3               89.36           4      0.00     74.11     95.00     1.824     37.01    0.0    0.0
  XR-Pump-4               87.22           5      0.00     70.74     95.00     1.682     33.16    0.0    0.0
  

  Analysis begun on:  Tue Dec 21 14:23:42 2021
  Analysis ended on:  Tue Dec 21 14:23:43 2021
  Total elapsed time: 00:00:01