
  EPA STORM WATER MANAGEMENT MODEL - VERSION 5.1 (Build 5.3.0.dev0)
  --------------------------------------------------------------

  WARNING 04: minimum elevation drop used for Conduit WS02004404WS02004405
  WARNING 03: negative offset ignored for Link YS02001904YS02001907
  
  *********************************************************
  NOTE: The summary statistics displayed in this report are
  based on results found at every computational time step,  
  not just on results from each reporting time step.
  *********************************************************
  
  ****************
  Analysis Options
  ****************
  Flow Units ............... LPS
  Process Models:
    Rainfall/Runoff ........ YES
    RDII ................... NO
    Snowmelt ............... NO
    Groundwater ............ NO
    Flow Routing ........... YES
    Ponding Allowed ........ NO
    Water Quality .......... NO
  Infiltration Method ...... HORTON
  Flow Routing Method ...... DYNWAVE
  Surcharge Method ......... EXTRAN
  Starting Date ............ 08/28/2015 08:00:00
  Ending Date .............. 08/28/2015 15:50:00
  Antecedent Dry Days ...... 8.0
  Report Time Step ......... 00:01:00
  Wet Time Step ............ 00:01:00
  Dry Time Step ............ 00:01:00
  Routing Time Step ........ 5.00 sec
  Variable Time Step ....... YES
  Maximum Trials ........... 8
  Number of Threads ........ 4
  Head Tolerance ........... 0.001500 m
  
  
  **************************        Volume         Depth
  Runoff Quantity Continuity     hectare-m            mm
  **************************     ---------       -------
  Total Precipitation ......         2.330         5.102
  Evaporation Loss .........         0.000         0.000
  Infiltration Loss ........         0.581         1.272
  Surface Runoff ...........         0.900         1.971
  Final Storage ............         0.849         1.860
  Continuity Error (%) .....        -0.018
  
  
  **************************        Volume        Volume
  Flow Routing Continuity        hectare-m      10^6 ltr
  **************************     ---------     ---------
  Dry Weather Inflow .......         0.616         6.165
  Wet Weather Inflow .......         0.900         8.996
  Groundwater Inflow .......         0.000         0.000
  RDII Inflow ..............         0.000         0.000
  External Inflow ..........         0.102         1.024
  External Outflow .........         1.712        17.124
  Flooding Loss ............         0.000         0.000
  Evaporation Loss .........         0.000         0.000
  Exfiltration Loss ........         0.000         0.000
  Initial Stored Volume ....         0.076         0.761
  Final Stored Volume ......         0.158         1.582
  Continuity Error (%) .....       -10.393
  
  
  *************************
  Highest Continuity Errors
  *************************
  Node JK-storage (-47.52%)
  Node HS02004842 (31.76%)
  Node YS02001884 (26.12%)
  Node YS02001774 (9.62%)
  Node YSB1171 (8.28%)
  
  
  ***************************
  Time-Step Critical Elements
  ***************************
  Link WS02006252WS02006251 (57.93%)
  Link 3 (30.41%)
  Link WS02006238WS02006235 (5.21%)
  Link WS02006280WS02006229 (2.40%)
  
  
  ********************************
  Highest Flow Instability Indexes
  ********************************
  Link WS02006113WS02006111 (40)
  Link WS02006111WS02006112 (25)
  Link YS02001754YS02001757 (3)
  Link YS02001751YS02001754 (3)
  Link YS02001767YS02001765 (3)
  
  
  *************************
  Routing Time Step Summary
  *************************
  Minimum Time Step           :     0.50 sec
  Average Time Step           :     0.87 sec
  Maximum Time Step           :     5.00 sec
  Percent in Steady State     :    -0.00
  Average Iterations per Step :     2.02
  Percent Not Converging      :     0.07
  
  
  ***************************
  Subcatchment Runoff Summary
  ***************************
  
  ------------------------------------------------------------------------------------------------------------------------------
                            Total      Total      Total      Total     Imperv       Perv      Total       Total     Peak  Runoff
                           Precip      Runon       Evap      Infil     Runoff     Runoff     Runoff      Runoff   Runoff   Coeff
  Subcatchment                 mm         mm         mm         mm         mm         mm         mm    10^6 ltr      LPS
  ------------------------------------------------------------------------------------------------------------------------------
  sub0                       5.10       0.00       0.00       0.36       3.48       0.00       3.48        0.00     1.20   0.682
  sub1                       5.10       0.00       0.00       0.56       3.29       0.00       3.29        0.02     6.06   0.644
  sub2                       5.10       0.00       0.00       1.89       2.31       0.00       2.31        0.02     5.32   0.453
  sub3                       5.10       0.00       0.00       1.89       2.28       0.00       2.28        0.05    10.83   0.446
  sub4                       5.10       0.00       0.00       0.56       3.15       0.00       3.15        0.07    12.04   0.618
  sub5                       5.10       0.00       0.00       0.36       3.43       0.00       3.43        0.04    10.78   0.673
  sub7                       5.10       0.00       0.00       0.46       3.39       0.00       3.39        0.01     3.87   0.664
  sub8                       5.10       0.00       0.00       0.46       3.38       0.00       3.38        0.02     6.78   0.662
  sub9                       5.10       0.00       0.00       0.46       3.38       0.00       3.38        0.02     5.02   0.662
  sub10                      5.10       0.00       0.00       0.41       3.40       0.00       3.40        0.04    10.80   0.667
  sub11                      5.10       0.00       0.00       0.41       3.42       0.00       3.42        0.04    12.78   0.670
  sub12                      5.10       0.00       0.00       0.66       3.25       0.00       3.25        0.03    11.00   0.637
  sub14                      5.10       0.00       0.00       0.46       3.38       0.00       3.38        0.03     9.80   0.662
  sub15                      5.10       0.00       0.00       1.53       2.59       0.00       2.59        0.04    13.26   0.508
  sub16                      5.10       0.00       0.00       1.68       2.50       0.00       2.50        0.03     9.62   0.490
  sub17                      5.10       0.00       0.00       1.63       2.54       0.00       2.54        0.02     7.75   0.497
  sub22                      5.10       0.00       0.00       2.19       2.12       0.00       2.12        0.13    43.78   0.416
  sub23                      5.10       0.00       0.00       1.89       2.34       0.00       2.34        0.11    37.34   0.460
  sub60                      5.10       0.00       0.00       0.61       2.17       0.00       2.17        0.66    58.39   0.426
  sub61                      5.10       0.00       0.00       0.87       2.36       0.00       2.36        0.73    74.03   0.462
  sub62                      5.10       0.00       0.00       0.41       2.52       0.00       2.52        0.77    75.41   0.493
  sub63                      5.10       0.00       0.00       1.48       2.11       0.00       2.11        0.64    69.41   0.413
  sub64                      5.10       0.00       0.00       0.77       2.08       0.00       2.08        0.63    55.41   0.407
  sub65                      5.10       0.00       0.00       0.66       2.10       0.00       2.10        0.65    56.17   0.412
  sub66                      5.10       0.00       0.00       1.48       1.82       0.00       1.82        0.56    50.96   0.357
  sub67                      5.10       0.00       0.00       0.41       2.80       0.00       2.80        0.86    97.83   0.549
  sub68                      5.10       0.00       0.00       0.71       2.52       0.00       2.52        0.77    82.08   0.493
  sub69                      5.10       0.00       0.00       0.77       2.75       0.00       2.75        0.64    82.58   0.539
  sub70                      5.10       2.80       0.00       2.69       3.28       0.00       3.28        0.75    63.61   0.415
  sub71                      5.10       0.00       0.00       0.41       2.40       0.00       2.40        0.57    52.44   0.470
  sub72                      5.10       0.00       0.00       0.36       1.64       0.00       1.64        0.33    24.24   0.322
  sub73                      5.10       3.20       0.00       2.82       3.28       0.00       3.28        0.77    54.28   0.395
  sub74                      5.10       0.00       0.00       3.83       0.83       0.00       0.83        0.33    46.31   0.163
  
  
  ******************
  Node Depth Summary
  ******************
  
  ---------------------------------------------------------------------------------
                                 Average  Maximum  Maximum  Time of Max    Reported
                                   Depth    Depth      HGL   Occurrence   Max Depth
  Node                 Type       Meters   Meters   Meters  days hr:min      Meters
  ---------------------------------------------------------------------------------
  WS02001211           JUNCTION     0.67     0.78     5.62     0  04:10        0.78
  WS02001212           JUNCTION     0.39     0.49     5.55     0  04:10        0.49
  WS02001213           JUNCTION     0.63     0.73     5.49     0  04:11        0.73
  WS02003069           JUNCTION     0.45     0.54     5.13     0  03:03        0.54
  WS02003072           JUNCTION     0.51     0.60     4.98     0  03:04        0.60
  WS02003073           JUNCTION     0.31     0.37     4.43     0  03:05        0.37
  WS02003060           JUNCTION     0.40     0.48     5.41     0  03:03        0.48
  WS02003066           JUNCTION     0.23     0.29     5.84     0  02:50        0.29
  WS02003059           JUNCTION     0.69     0.78     5.47     0  04:11        0.78
  WS02003067           JUNCTION     0.58     0.68     6.00     0  02:50        0.68
  WS02004401           JUNCTION     0.67     0.81     6.81     0  02:46        0.81
  WS02004402           JUNCTION     0.70     0.84     6.80     0  02:46        0.84
  WS02004403           JUNCTION     0.72     0.86     6.79     0  02:46        0.86
  WS02004404           JUNCTION     0.80     0.93     6.78     0  02:46        0.93
  WS02004406           JUNCTION     0.80     0.93     6.76     0  02:47        0.93
  WS02004409           JUNCTION     0.49     0.63     6.40     0  02:49        0.63
  WS02004410           JUNCTION     0.51     0.65     6.37     0  02:49        0.65
  WS02004411           JUNCTION     0.53     0.66     6.34     0  02:50        0.66
  WS02004412           JUNCTION     0.54     0.67     6.31     0  02:50        0.67
  WS02004413           JUNCTION     0.70     0.83     6.30     0  02:50        0.83
  WS02004405           JUNCTION     0.79     0.93     6.78     0  02:46        0.93
  WS02006109           JUNCTION     0.75     0.92     7.54     0  02:42        0.92
  WS02006110           JUNCTION     0.75     0.89     7.47     0  02:42        0.89
  WS02006111           JUNCTION     0.22     0.27     6.98     0  02:42        0.27
  WS02006112           JUNCTION     0.84     1.00     6.88     0  02:46        1.00
  WS02006113           JUNCTION     0.34     0.43     7.33     0  02:42        0.43
  WS02006115           JUNCTION     0.56     0.71     6.85     0  02:46        0.71
  WS02006116           JUNCTION     0.64     0.79     6.83     0  02:46        0.79
  WS02006230           JUNCTION     0.72     0.96     7.70     0  02:42        0.96
  WS02006231           JUNCTION     0.48     0.65     7.77     0  02:42        0.65
  WS02006232           JUNCTION     0.62     0.78     7.82     0  02:42        0.78
  WS02006234           JUNCTION     0.54     0.73     7.88     0  02:41        0.73
  WS02006235           JUNCTION     0.57     0.76     7.93     0  02:41        0.76
  WS02006238           JUNCTION     0.60     0.79     7.94     0  02:41        0.79
  WS02006240           JUNCTION     0.50     0.72     8.01     0  02:41        0.72
  WS02006242           JUNCTION     0.56     0.79     8.06     0  02:41        0.79
  WS02006243           JUNCTION     0.44     0.68     8.10     0  02:41        0.68
  WS02006245           JUNCTION     0.43     0.65     8.13     0  02:41        0.65
  WS02006247           JUNCTION     0.44     0.66     8.16     0  02:41        0.66
  WS02006248           JUNCTION     0.39     0.59     8.18     0  02:41        0.59
  WS02006249           JUNCTION     0.42     0.60     8.20     0  02:41        0.60
  WS02006239           JUNCTION     0.56     0.77     7.98     0  02:41        0.77
  WS02006251           JUNCTION     0.42     0.62     8.29     0  02:40        0.62
  WS02006252           JUNCTION     0.37     0.58     8.83     0  06:00        0.58
  WS02006253           JUNCTION     0.44     0.65     8.30     0  02:40        0.65
  WS02006256           JUNCTION     1.01     1.20     8.14     0  03:00        1.20
  WS02004138           JUNCTION     0.15     0.19     7.44     0  02:12        0.19
  WS02004407           JUNCTION     0.22     0.28     6.59     0  02:47        0.28
  WS02006228           JUNCTION     0.75     0.95     7.60     0  02:42        0.95
  WS02006229           JUNCTION     0.72     0.94     7.64     0  02:42        0.94
  WS02006280           JUNCTION     0.05     0.13     8.40     0  02:20        0.13
  WS02006284           JUNCTION     0.34     0.46     8.86     0  02:20        0.46
  WS02006287           JUNCTION     0.07     0.19     9.15     0  02:19        0.19
  WSF200               JUNCTION     0.22     0.29     5.53     0  02:48        0.29
  HS02004901           JUNCTION     0.11     0.21    10.04     0  02:18        0.21
  HS02004881           JUNCTION     0.01     0.02     9.05     0  02:19        0.02
  HS02004876           JUNCTION     0.03     0.10     9.13     0  02:18        0.10
  HS02004870           JUNCTION     0.01     0.04     9.32     0  02:19        0.04
  HS02004862           JUNCTION     0.01     0.04     9.43     0  02:20        0.04
  HS02004856           JUNCTION     0.07     0.10     9.53     0  02:19        0.10
  HS02004852           JUNCTION     0.01     0.02     9.54     0  02:20        0.02
  HS02004848           JUNCTION     0.01     0.02     9.62     0  02:18        0.02
  HS02004842           JUNCTION     0.33     0.35     9.62     0  02:18        0.35
  HS02004837           JUNCTION     0.02     0.04     9.62     0  02:18        0.04
  HS02004830           JUNCTION     0.04     0.06     9.53     0  02:19        0.06
  HS02004824           JUNCTION     0.02     0.04     9.44     0  02:22        0.04
  HS02004817           JUNCTION     0.42     0.51     9.36     0  02:20        0.51
  HS02004807           JUNCTION     0.11     0.18     9.35     0  02:20        0.18
  HS02004802           JUNCTION     0.15     0.22     9.35     0  02:20        0.22
  HS02004799           JUNCTION     0.09     0.23     9.44     0  02:18        0.23
  HS02004792           JUNCTION     0.02     0.09     9.61     0  02:17        0.09
  HS02004788           JUNCTION     0.02     0.06     9.96     0  02:18        0.06
  HS02004785           JUNCTION     0.03     0.12    10.02     0  02:18        0.12
  HS02004777           JUNCTION     0.13     0.24    10.03     0  02:18        0.24
  HS02004770           JUNCTION     0.10     0.21    10.04     0  02:18        0.21
  HS02004480           JUNCTION     0.06     0.18     9.42     0  02:18        0.18
  HS02004479           JUNCTION     0.09     0.22     9.42     0  02:18        0.22
  HS02004478           JUNCTION     0.05     0.11     9.34     0  02:19        0.11
  YS02001745           JUNCTION     0.07     0.10     7.62     0  03:01        0.10
  YS02001748           JUNCTION     0.12     0.31     7.38     0  03:33        0.30
  YS02001751           JUNCTION     0.28     0.51     7.39     0  03:34        0.49
  YS02001754           JUNCTION     0.53     0.79     7.40     0  03:33        0.78
  YS02001762           JUNCTION     0.73     0.94     7.34     0  03:05        0.94
  YS02001765           JUNCTION     0.68     0.89     7.34     0  03:07        0.89
  YS02001767           JUNCTION     0.64     0.86     7.35     0  03:36        0.86
  YS02001770           JUNCTION     0.64     0.84     7.34     0  03:06        0.84
  YS02001774           JUNCTION     0.71     0.91     7.34     0  03:06        0.91
  YS02001779           JUNCTION     0.46     0.66     7.35     0  03:33        0.66
  YS02001882           JUNCTION     0.26     0.40     7.11     0  02:53        0.40
  YS02001884           JUNCTION     0.35     0.50     7.11     0  02:53        0.50
  YS02001759           JUNCTION     0.76     0.98     7.34     0  03:38        0.98
  YS02001887           JUNCTION     0.43     0.58     7.11     0  02:53        0.58
  YS02001890           JUNCTION     0.46     0.61     7.11     0  02:54        0.61
  YS02001898           JUNCTION     0.23     0.36     7.10     0  02:54        0.36
  YS02001901           JUNCTION     0.35     0.49     7.10     0  02:54        0.49
  YS02001904           JUNCTION     0.33     0.46     7.09     0  02:55        0.46
  YS02001907           JUNCTION     0.66     0.81     7.10     0  02:55        0.81
  YS02001910           JUNCTION     0.45     0.59     7.10     0  02:55        0.59
  YS02001915           JUNCTION     0.25     0.38     7.09     0  02:55        0.38
  YS02001918           JUNCTION     0.07     0.09     7.15     0  03:03        0.09
  YS02001619           JUNCTION     0.24     0.42     7.35     0  03:39        0.42
  YS02001629           JUNCTION     0.59     0.79     7.34     0  03:06        0.79
  YS02001641           JUNCTION     0.69     0.90     7.34     0  03:37        0.90
  YS02001644           JUNCTION     0.70     0.91     7.34     0  03:01        0.90
  YS02001652           JUNCTION     0.54     0.77     7.37     0  03:31        0.77
  YS02001655           JUNCTION     0.31     0.52     7.37     0  03:25        0.51
  YS02001920           JUNCTION     0.16     0.19     7.20     0  03:03        0.19
  YS02001923           JUNCTION     0.06     0.07     7.33     0  03:02        0.07
  YS02001926           JUNCTION     0.13     0.16     7.60     0  03:01        0.16
  YS02001929           JUNCTION     0.06     0.08     7.77     0  03:01        0.08
  YS02001658           JUNCTION     0.09     0.23     7.37     0  03:35        0.22
  YS02001661           JUNCTION     0.13     0.18     7.59     0  02:46        0.18
  YS02001664           JUNCTION     0.06     0.10     8.03     0  02:46        0.10
  YS02001622           JUNCTION     0.26     0.43     7.34     0  03:03        0.43
  YS02001633           JUNCTION     0.68     0.89     7.34     0  03:05        0.89
  YS02001649           JUNCTION     0.74     0.95     7.34     0  03:07        0.95
  YS02001757           JUNCTION     0.86     1.09     7.35     0  03:20        1.08
  YS02001895           JUNCTION     0.23     0.36     7.11     0  02:54        0.36
  YS02001625           JUNCTION     0.54     0.74     7.34     0  03:38        0.74
  YS02163301           JUNCTION     0.62     0.82     7.34     0  03:04        0.82
  YS02163601           JUNCTION     0.73     0.94     7.34     0  03:04        0.94
  YS02164001           JUNCTION     0.67     0.88     7.34     0  03:04        0.88
  YS02001647           JUNCTION     0.53     0.73     7.34     0  03:03        0.73
  YSB1154              JUNCTION     0.23     0.36     9.42     0  02:18        0.36
  YSB6556              JUNCTION     0.13     0.25     9.42     0  02:18        0.25
  YSB1174              JUNCTION     0.18     0.31     9.42     0  02:18        0.31
  YSB1171              JUNCTION     0.38     0.52     9.42     0  02:18        0.52
  YS02006553           JUNCTION     0.66     0.81     7.09     0  02:55        0.81
  YS02006561           JUNCTION     0.13     0.20     6.86     0  02:55        0.20
  YS02006556           JUNCTION     0.63     0.78     7.09     0  02:55        0.78
  YS02006558           JUNCTION     0.68     0.82     7.09     0  02:55        0.82
  YS02001783           JUNCTION     0.21     0.35     6.49     0  02:55        0.35
  YS02001784           JUNCTION     0.25     0.38     6.45     0  02:55        0.38
  YS02001786           JUNCTION     0.21     0.32     6.35     0  02:56        0.32
  YS02001788           JUNCTION     0.15     0.24     6.22     0  02:56        0.24
  YS02001790           JUNCTION     0.19     0.29     5.94     0  02:56        0.29
  YS02001791           JUNCTION     0.12     0.19     5.66     0  02:56        0.19
  YS02001793           JUNCTION     0.08     0.13     4.96     0  03:02        0.13
  WS02004139           JUNCTION     0.61     0.73     5.64     0  04:10        0.73
  WSC                  OUTFALL      0.31     0.37     1.04     0  03:05        0.37
  3                    OUTFALL      0.07     0.20     6.20     0  03:00        0.20
  4                    OUTFALL      0.02     0.10     7.10     0  02:41        0.10
  5                    OUTFALL      0.00     0.00     5.00     0  00:00        0.00
  JK-storage           STORAGE      0.39     3.42     4.22     0  02:38        3.42
  CC-storage           STORAGE      0.08     0.24     7.24     0  03:54        0.24
  XR-storage           STORAGE      2.70     5.10     3.10     0  00:21        5.10
  
  
  *******************
  Node Inflow Summary
  *******************
  
  -------------------------------------------------------------------------------------------------
                                  Maximum  Maximum                  Lateral       Total        Flow
                                  Lateral    Total  Time of Max      Inflow      Inflow     Balance
                                   Inflow   Inflow   Occurrence      Volume      Volume       Error
  Node                 Type           LPS      LPS  days hr:min    10^6 ltr    10^6 ltr     Percent
  -------------------------------------------------------------------------------------------------
  WS02001211           JUNCTION      7.35   387.45     0  02:16       0.207        7.31       0.415
  WS02001212           JUNCTION      0.00   387.11     0  02:16           0        7.28       0.248
  WS02001213           JUNCTION      0.00   386.62     0  02:17           0        7.26       0.248
  WS02003069           JUNCTION      0.32   833.63     0  03:03     0.00902        14.6       0.172
  WS02003072           JUNCTION      0.00   833.38     0  03:04           0        14.6       0.218
  WS02003073           JUNCTION      1.82   835.25     0  03:04      0.0514        14.6       0.241
  WS02003060           JUNCTION     16.53   833.16     0  03:02       0.466        14.6       0.166
  WS02003066           JUNCTION      0.00   485.28     0  02:50           0        6.97       0.059
  WS02003059           JUNCTION      0.00   385.99     0  02:18           0        7.24       0.474
  WS02003067           JUNCTION      0.00   485.26     0  02:50           0        6.98       0.127
  WS02004401           JUNCTION      0.00   490.45     0  02:44           0         7.2       0.292
  WS02004402           JUNCTION      0.00   489.48     0  02:45           0        7.18       0.275
  WS02004403           JUNCTION      0.00   489.19     0  02:46           0        7.16       0.251
  WS02004404           JUNCTION      0.16   489.20     0  02:46     0.00457        7.15       0.190
  WS02004406           JUNCTION      0.00   489.24     0  02:46           0        7.11       0.464
  WS02004409           JUNCTION      0.00   489.12     0  02:47           0        7.07       0.216
  WS02004410           JUNCTION      0.00   487.40     0  02:47           0        7.06       0.244
  WS02004411           JUNCTION      0.00   486.17     0  02:48           0        7.04       0.251
  WS02004412           JUNCTION      0.00   485.57     0  02:49           0        7.02       0.273
  WS02004413           JUNCTION      0.00   485.40     0  02:50           0           7       0.408
  WS02004405           JUNCTION      0.04   489.23     0  02:46     0.00107        7.13       0.284
  WS02006109           JUNCTION      1.23   494.38     0  02:42      0.0347         7.3       0.270
  WS02006110           JUNCTION      0.00   494.38     0  02:42           0        7.28       0.284
  WS02006111           JUNCTION      0.00   511.65     0  02:42           0        7.25       0.057
  WS02006112           JUNCTION      7.75   500.36     0  02:42      0.0217        7.27       0.403
  WS02006113           JUNCTION      0.00   494.55     0  02:42           0        7.26       0.134
  WS02006115           JUNCTION      0.00   495.65     0  02:43           0        7.24       0.281
  WS02006116           JUNCTION      0.00   492.38     0  02:43           0        7.22       0.244
  WS02006230           JUNCTION     10.28   397.49     0  04:26        0.29        6.52       0.192
  WS02006231           JUNCTION      0.00   387.69     0  04:26           0        6.24       0.166
  WS02006232           JUNCTION      0.00   387.68     0  04:26           0        6.26       0.250
  WS02006234           JUNCTION      0.00   388.23     0  04:26           0        6.27       0.143
  WS02006235           JUNCTION      0.00   388.35     0  04:26           0         6.3       0.146
  WS02006238           JUNCTION      0.00   343.01     0  04:20           0         4.5       0.135
  WS02006240           JUNCTION      0.00   336.77     0  04:20           0         4.5       0.261
  WS02006242           JUNCTION      0.00   336.07     0  03:41           0         4.5       0.304
  WS02006243           JUNCTION      0.00   334.06     0  03:41           0        4.49      -0.053
  WS02006245           JUNCTION      0.00   331.77     0  03:41           0         4.5       0.242
  WS02006247           JUNCTION      0.00   331.79     0  05:10           0        4.51       0.141
  WS02006248           JUNCTION      0.00   335.81     0  05:10           0        4.51       0.075
  WS02006249           JUNCTION      0.00   412.43     0  02:40           0        4.87       0.198
  WS02006239           JUNCTION      0.00   342.04     0  04:20           0         4.5       0.211
  WS02006251           JUNCTION      0.08   416.51     0  02:40     0.00217        4.92       0.158
  WS02006252           JUNCTION      0.00   400.00     0  04:00           0        4.76       0.007
  WS02006253           JUNCTION      1.20    41.29     0  06:37     0.00282        0.17       1.969
  WS02006256           JUNCTION      0.00   600.00     0  03:00           0        4.03       0.057
  WS02004138           JUNCTION      0.00   380.00     0  02:10           0        7.12       0.053
  WS02004407           JUNCTION      0.00   489.16     0  02:47           0        7.08       0.100
  WS02006228           JUNCTION      0.00   493.14     0  02:42           0        7.28       0.195
  WS02006229           JUNCTION      0.00   493.16     0  02:42           0        7.29       0.172
  WS02006280           JUNCTION      0.00   173.98     0  02:20           0       0.783       0.009
  WS02006284           JUNCTION      0.10   173.98     0  02:19      0.0027       0.784       0.137
  WS02006287           JUNCTION      0.00   173.89     0  02:19           0       0.782       0.092
  WSF200               JUNCTION      0.00   485.31     0  02:50           0        6.96       0.056
  HS02004901           JUNCTION      9.62     9.62     0  02:11      0.0262      0.0263       7.156
  HS02004881           JUNCTION      3.87    32.42     0  02:18      0.0114       0.119       0.213
  HS02004876           JUNCTION      6.06    28.87     0  02:19      0.0218       0.108       0.485
  HS02004870           JUNCTION      6.78    22.95     0  02:19      0.0216      0.0866       0.123
  HS02004862           JUNCTION      5.52    16.66     0  02:19      0.0271      0.0652       0.258
  HS02004856           JUNCTION      5.02    11.19     0  02:18      0.0162      0.0395       3.779
  HS02004852           JUNCTION      0.00     6.52     0  02:19           0      0.0233       0.212
  HS02004848           JUNCTION     10.83    10.83     0  02:21      0.0512      0.0512       0.084
  HS02004842           JUNCTION      0.00     4.68     0  02:31           0      0.0409      46.534
  HS02004837           JUNCTION     17.15    21.19     0  02:17       0.217       0.245       0.332
  HS02004830           JUNCTION      0.15    21.33     0  02:18     0.00423       0.235       0.527
  HS02004824           JUNCTION     12.09    33.27     0  02:22      0.0672       0.301       0.179
  HS02004817           JUNCTION      0.60    33.86     0  02:22      0.0169       0.317       5.544
  HS02004807           JUNCTION     12.78    45.43     0  02:20      0.0397        0.34       1.257
  HS02004802           JUNCTION      0.00    45.57     0  02:21           0       0.336       1.222
  HS02004799           JUNCTION      9.80   109.42     0  02:17      0.0321       0.397       0.570
  HS02004792           JUNCTION     44.06    99.90     0  02:17       0.142       0.365       0.113
  HS02004788           JUNCTION     14.93    58.12     0  02:18      0.0917       0.225       0.174
  HS02004785           JUNCTION      0.15    43.71     0  02:17     0.00423       0.135       0.357
  HS02004777           JUNCTION      0.03    44.22     0  02:15    0.000846       0.135       3.968
  HS02004770           JUNCTION     37.34    45.63     0  02:13       0.112       0.136       2.324
  HS02004480           JUNCTION      0.00   128.96     0  02:18           0       0.462       0.154
  HS02004479           JUNCTION      0.00    19.97     0  02:19           0      0.0769       0.957
  HS02004478           JUNCTION      0.00   173.89     0  02:19           0       0.783       0.081
  YS02001745           JUNCTION     58.39    58.39     0  03:01       0.659       0.659       0.089
  YS02001748           JUNCTION      0.04   131.99     0  03:32     0.00127       0.713      -0.006
  YS02001751           JUNCTION      0.01   179.02     0  03:30     0.00031       0.803       0.287
  YS02001754           JUNCTION      0.26   195.03     0  05:16     0.00733        1.09       0.867
  YS02001762           JUNCTION      0.00   107.15     0  03:34           0       0.799       1.738
  YS02001765           JUNCTION      0.00   105.44     0  03:34           0       0.793       1.835
  YS02001767           JUNCTION      0.54   101.20     0  03:21      0.0151       0.799       2.549
  YS02001770           JUNCTION     75.57   100.60     0  03:21       0.778       0.841       2.003
  YS02001774           JUNCTION      0.00    40.66     0  02:24           0       0.154      10.642
  YS02001779           JUNCTION      0.01    38.90     0  03:28    0.000141      0.0768       7.510
  YS02001882           JUNCTION      0.00     3.50     0  02:09           0     0.00442      55.418
  YS02001884           JUNCTION      0.00    10.16     0  02:09           0      0.0178      35.353
  YS02001759           JUNCTION     74.07   175.32     0  03:21       0.727         1.5       1.088
  YS02001887           JUNCTION     98.28    98.28     0  02:43       0.876       0.885       0.789
  YS02001890           JUNCTION      0.00    97.70     0  02:45           0       0.863       0.888
  YS02001898           JUNCTION      0.00    97.29     0  02:47           0       0.852       0.237
  YS02001901           JUNCTION      0.00    97.22     0  02:49           0       0.852       0.624
  YS02001904           JUNCTION      0.00    96.83     0  02:50           0       0.852       0.582
  YS02001907           JUNCTION      0.00   175.43     0  02:56           0        1.82       1.209
  YS02001910           JUNCTION      0.00    79.72     0  03:00           0       0.974       1.023
  YS02001915           JUNCTION     52.46    79.35     0  03:01       0.566       0.979       0.439
  YS02001918           JUNCTION      0.00    27.11     0  03:03           0       0.414       0.242
  YS02001619           JUNCTION     50.96    50.96     0  02:59       0.558       0.558       0.118
  YS02001629           JUNCTION      0.00    77.33     0  03:22           0       0.542       1.025
  YS02001641           JUNCTION      0.00   114.06     0  03:08           0        1.15       1.132
  YS02001644           JUNCTION     55.45   169.44     0  03:08       0.632        1.77       0.896
  YS02001652           JUNCTION      0.00   106.55     0  03:19           0       0.717       1.245
  YS02001655           JUNCTION      0.15   157.69     0  03:27     0.00434       0.673       0.516
  YS02001920           JUNCTION      2.87    27.13     0  03:02      0.0809       0.416       0.459
  YS02001923           JUNCTION      0.04    24.26     0  03:02     0.00106       0.335       0.080
  YS02001926           JUNCTION      0.05    24.28     0  03:01     0.00147       0.336       0.578
  YS02001929           JUNCTION     24.24    24.24     0  03:01       0.335       0.335       0.077
  YS02001658           JUNCTION      0.00    89.25     0  03:38           0       0.661       0.062
  YS02001661           JUNCTION      0.00    69.41     0  02:46           0       0.638       0.119
  YS02001664           JUNCTION     69.41    69.41     0  02:46       0.638       0.638       0.025
  YS02001622           JUNCTION      0.00    60.35     0  03:21           0       0.557       0.506
  YS02001633           JUNCTION     56.37   115.57     0  03:05       0.651        1.18       1.600
  YS02001649           JUNCTION      0.00   275.95     0  03:25           0        2.42       0.993
  YS02001757           JUNCTION      0.00   464.61     0  03:24           0        4.73       1.505
  YS02001895           JUNCTION      0.00    97.40     0  02:48           0       0.856       0.411
  YS02001625           JUNCTION      0.00    65.13     0  03:20           0       0.555       2.865
  YS02163301           JUNCTION      0.00    68.76     0  03:21           0       0.544       2.335
  YS02163601           JUNCTION      0.11   123.61     0  03:23      0.0031        1.16       1.687
  YS02164001           JUNCTION      0.00   114.77     0  03:05           0        1.15       1.039
  YS02001647           JUNCTION      0.00   168.13     0  03:14           0        1.74       0.692
  YSB1154              JUNCTION     10.78    10.78     0  02:16      0.0389      0.0403       3.715
  YSB6556              JUNCTION      0.00    10.71     0  02:18           0      0.0413       3.104
  YSB1174              JUNCTION     11.00    11.00     0  02:10      0.0284      0.0294       4.565
  YSB1171              JUNCTION      0.00    19.92     0  02:18           0      0.0763       9.031
  YS02006553           JUNCTION      0.00   175.48     0  02:58           0         1.8       0.785
  YS02006561           JUNCTION      0.00   257.60     0  02:55           0        2.55       0.024
  YS02006556           JUNCTION      0.00   175.65     0  03:02           0        1.81       0.565
  YS02006558           JUNCTION     82.96   257.62     0  02:55       0.798        2.58       0.172
  YS02001783           JUNCTION      0.00   257.60     0  02:55           0        2.55       0.055
  YS02001784           JUNCTION      1.06   258.66     0  02:55      0.0299        2.58       0.091
  YS02001786           JUNCTION      0.06   258.71     0  02:55     0.00159        2.58       0.089
  YS02001788           JUNCTION      0.07   258.77     0  02:56       0.002        2.58       0.051
  YS02001790           JUNCTION      0.15   258.92     0  02:56     0.00437        2.58       0.064
  YS02001791           JUNCTION      0.00   258.92     0  02:56           0        2.58       0.031
  YS02001793           JUNCTION      0.00   263.50     0  03:02           0        2.58       0.020
  WS02004139           JUNCTION      0.32   380.32     0  02:12     0.00905        7.13       0.446
  WSC                  OUTFALL       0.00   835.11     0  03:05           0        14.6       0.000
  3                    OUTFALL       0.00   490.14     0  03:00           0         2.2       0.000
  4                    OUTFALL       0.00   108.97     0  02:41           0       0.351       0.000
  5                    OUTFALL       0.00     0.00     0  00:00           0           0       0.000 ltr
  JK-storage           STORAGE       0.00   264.52     0  03:02           0        2.73     -32.213
  CC-storage           STORAGE       0.00   425.34     0  03:04           0        4.33      -9.039
  XR-storage           STORAGE     295.07   295.07     0  02:53        6.74        7.34      -0.001
  
  
  **********************
  Node Surcharge Summary
  **********************
  
  Surcharging occurs when water rises above the top of the highest conduit.
  ---------------------------------------------------------------------
                                               Max. Height   Min. Depth
                                   Hours       Above Crown    Below Rim
  Node                 Type      Surcharged         Meters       Meters
  ---------------------------------------------------------------------
  WS02006109           JUNCTION        1.62          0.102        1.718
  WS02006232           JUNCTION        1.76          0.081        1.399
  WS02006234           JUNCTION        0.06          0.007        1.233
  WS02006235           JUNCTION        0.83          0.054        1.236
  WS02006238           JUNCTION        1.27          0.073        1.357
  WS02006240           JUNCTION        0.06          0.010        1.380
  WS02006242           JUNCTION        0.91          0.060        0.760
  WS02006239           JUNCTION        0.12          0.027        1.263
  WS02006252           JUNCTION        2.19          0.184        0.916
  WS02006228           JUNCTION        1.48          0.119        2.081
  YS02001757           JUNCTION        1.61          0.086        1.124
  
  
  *********************
  Node Flooding Summary
  *********************
  
  No nodes were flooded.
  
  
  **********************
  Storage Volume Summary
  **********************
  
  --------------------------------------------------------------------------------------------------
                         Average     Avg  Evap Exfil       Maximum     Max    Time of Max    Maximum
                          Volume    Pcnt  Pcnt  Pcnt        Volume    Pcnt     Occurrence    Outflow
  Storage Unit           1000 m3    Full  Loss  Loss       1000 m3    Full    days hr:min        LPS
  --------------------------------------------------------------------------------------------------
  JK-storage               0.020       7     0     0         0.172      59       0  02:38     600.00
  CC-storage               0.234       1     0     0         0.681       4       0  03:54     400.00
  XR-storage               0.324      35     0     0         0.612      66       0  00:21     380.00
  
  
  ***********************
  Outfall Loading Summary
  ***********************
  
  -----------------------------------------------------------
                         Flow       Avg       Max       Total
                         Freq      Flow      Flow      Volume
  Outfall Node           Pcnt       LPS       LPS    10^6 ltr
  -----------------------------------------------------------
  WSC                  100.00    599.53    835.11      14.575
  3                     78.86    139.83    490.14       2.198
  4                     31.29     47.85    108.97       0.351
  5                      0.00      0.00      0.00       0.000
  -----------------------------------------------------------
  System                52.54    787.21   1293.66      17.124
  
  
  ********************
  Link Flow Summary
  ********************
  
  -----------------------------------------------------------------------------
                                 Maximum  Time of Max   Maximum    Max/    Max/
                                  |Flow|   Occurrence   |Veloc|    Full    Full
  Link                 Type          LPS  days hr:min     m/sec    Flow   Depth
  -----------------------------------------------------------------------------
  WS02003066WSF200     CONDUIT    485.31     0  02:50      2.69    0.08    0.22
  WS02006287WS02006284 CONDUIT    173.88     0  02:19      1.53    0.08    0.20
  WS02006284WS02006280 CONDUIT    173.98     0  02:20      1.77    0.07    0.18
  WS02006280WS02006229 CONDUIT    173.98     0  02:20      2.84    0.04    0.13
  WS02006229WS02006228 CONDUIT    493.14     0  02:42      0.98    1.63    1.00
  WS02006256WS02006235 CONDUIT    149.95     0  00:15      2.14    1.59    1.00
  WS02006253WS02006251 CONDUIT     43.68     0  06:36      0.46    0.13    0.90
  WS02006252WS02006251 CONDUIT    400.05     0  04:00      3.18    1.47    1.00
  WS02006251WS02006249 CONDUIT    412.43     0  02:40      1.16    1.19    0.88
  WS02006249WS02006248 CONDUIT    335.81     0  05:10      1.10    1.84    0.84
  WS02006248WS02006247 CONDUIT    331.79     0  05:10      1.08    0.72    0.89
  WS02006247WS02006245 CONDUIT    331.77     0  03:41      1.08    2.63    0.93
  WS02006245WS02006243 CONDUIT    334.06     0  03:41      1.14    0.99    0.94
  WS02006243WS02006242 CONDUIT    336.07     0  03:41      1.01    0.72    0.99
  WS02006242WS02006240 CONDUIT    336.77     0  04:20      0.90    1.34    1.00
  WS02006240WS02006239 CONDUIT    342.04     0  04:20      1.03    1.08    1.00
  WS02006239WS02006238 CONDUIT    343.01     0  04:20      0.91    1.10    1.00
  WS02006238WS02006235 CONDUIT    343.36     0  04:20      0.90    0.77    1.00
  WS02006235WS02006234 CONDUIT    388.23     0  04:26      1.01    4.10    1.00
  WS02006234WS02006232 CONDUIT    387.68     0  04:26      1.01    0.78    1.00
  WS02006232WS02006231 CONDUIT    387.69     0  04:26      1.05    0.81    0.95
  WS02006231WS02006230 CONDUIT    387.21     0  04:26      1.32    5.87    0.88
  WS02006230WS02006229 CONDUIT    397.05     0  04:26      1.03    8.84    1.00
  WS02006228WS02006109 CONDUIT    493.15     0  02:42      0.98    2.15    1.00
  WS02006116WS02004401 CONDUIT    490.45     0  02:44      0.80    0.68    0.80
  WS02006115WS02006116 CONDUIT    492.38     0  02:43      0.92    0.63    0.72
  WS02006113WS02006111 CONDUIT    511.65     0  02:42      2.39    0.61    0.44
  WS02006112WS02006115 CONDUIT    495.65     0  02:43      0.70    0.29    0.85
  WS02006111WS02006112 CONDUIT    497.03     0  02:42      1.40    0.24    0.67
  WS02006110WS02006113 CONDUIT    494.55     0  02:42      1.19    0.45    0.77
  WS02006109WS02006110 CONDUIT    494.38     0  02:42      0.99    0.95    0.99
  WS02004411WS02004412 CONDUIT    485.57     0  02:49      0.88    0.69    0.66
  WS02004401WS02004402 CONDUIT    489.48     0  02:45      0.83    0.59    0.83
  WS02004413WS02003067 CONDUIT    485.26     0  02:50      1.05    0.21    0.57
  WS02004412WS02004413 CONDUIT    485.40     0  02:50      0.77    0.33    0.75
  WS02004410WS02004411 CONDUIT    486.17     0  02:48      0.90    0.66    0.65
  WS02004409WS02004410 CONDUIT    487.40     0  02:47      0.93    0.63    0.64
  WS02004407WS02004409 CONDUIT    489.12     0  02:47      1.43    0.17    0.46
  WS02004406WS02004407 CONDUIT    489.16     0  02:47      0.98    0.22    0.61
  WS02004405WS02004406 CONDUIT    489.24     0  02:46      0.77    0.97    0.93
  WS02004404WS02004405 CONDUIT    489.19     0  02:46      0.96    4.79    0.93
  WS02004403WS02004404 CONDUIT    489.04     0  02:46      0.85    0.35    0.89
  WS02004402WS02004403 CONDUIT    489.19     0  02:46      0.85    0.70    0.85
  WS02004139WS02001211 CONDUIT    380.10     0  02:16      0.69    0.48    0.59
  WS02004138WS02004139 CONDUIT    380.00     0  02:12      2.95    0.08    0.43
  WS02003067WS02003066 CONDUIT    485.28     0  02:50      1.14    0.16    0.40
  WS02001213WS02003059 CONDUIT    385.99     0  02:18      0.68    0.64    0.75
  WS02001212WS02001213 CONDUIT    386.62     0  02:17      1.32    0.60    0.45
  WS02001211WS02001212 CONDUIT    387.11     0  02:16      0.78    0.30    0.63
  WS02003072WS02003073 CONDUIT    833.43     0  03:04      1.66    1.80    0.46
  WS02003069WS02003072 CONDUIT    833.38     0  03:04      1.56    0.40    0.48
  WS02003060WS02003069 CONDUIT    833.31     0  03:03      1.81    0.33    0.43
  WS02003059WS02003060 CONDUIT    385.25     0  04:11      0.92    0.25    0.63
  HS02004901HS02004770 CONDUIT      8.64     0  02:15      0.04    0.03    0.30
  HS02004876HS02004881 CONDUIT     28.92     0  02:19      0.49    0.31    0.08
  HS02004870HS02004876 CONDUIT     22.93     0  02:19      0.35    0.02    0.09
  HS02004842HS02004848 CONDUIT      4.68     0  02:31      0.03    0.00    0.27
  HS02004837HS02004842 CONDUIT      4.84     0  02:31      0.42    0.00    0.28
  HS02004830HS02004837 CONDUIT     21.18     0  02:18      0.42    0.02    0.07
  HS02004824HS02004830 CONDUIT     21.32     0  02:19      0.46    0.03    0.07
  HS02004817HS02004824 CONDUIT     33.26     0  02:22      0.17    0.01    0.39
  HS02004770HS02004777 CONDUIT     44.19     0  02:15      0.20    0.08    0.31
  HS02004799HS02004480 CONDUIT    109.21     0  02:17      0.54    0.14    0.29
  HS02004792HS02004799 CONDUIT     99.84     0  02:17      0.63    0.06    0.23
  HS02004788HS02004792 CONDUIT     58.07     0  02:18      0.78    0.04    0.11
  HS02004785HS02004788 CONDUIT     43.57     0  02:18      0.47    0.33    0.13
  HS02004777HS02004785 CONDUIT     43.56     0  02:17      0.25    0.05    0.25
  HS02004480HS02004478 CONDUIT    128.93     0  02:18      0.90    0.54    0.21
  HS02004479HS02004480 CONDUIT     20.12     0  02:20      0.15    0.02    0.28
  HS02004862HS02004870 CONDUIT     16.62     0  02:20      0.43    0.02    0.05
  HS02004848HS02004852 CONDUIT      6.52     0  02:19      0.28    0.01    0.03
  HS02004856HS02004862 CONDUIT     11.17     0  02:19      0.32    0.01    0.05
  HS02004852HS02004856 CONDUIT      6.48     0  02:21      0.11    0.01    0.09
  HS02004802HS02004478 CONDUIT     45.82     0  02:22      0.28    0.04    0.24
  HS02004478WS02006287 CONDUIT    173.89     0  02:19      1.22    0.05    0.16
  HS02004817HS02004807 CONDUIT     34.24     0  02:24      0.10    0.02    0.49
  HS02004807HS02004802 CONDUIT     45.57     0  02:21      0.23    0.09    0.28
  YS02001759YS02001757 CONDUIT    170.06     0  03:16      0.22    0.12    0.99
  YS02001762YS02001759 CONDUIT    115.49     0  03:21      0.17    0.13    0.96
  YS02001765YS02001762 CONDUIT    107.15     0  03:34      0.22    0.10    0.92
  YS02001770YS02001767 CONDUIT    100.67     0  03:21      0.34    0.40    0.84
  YS02001774YS02001770 CONDUIT     40.66     0  02:24      0.14    0.03    0.86
  YS02001779YS02001774 CONDUIT     38.89     0  03:28      0.07    0.02    0.78
  YS02001649YS02001757 CONDUIT    306.01     0  03:24      0.39    0.19    0.97
  YS02001767YS02001765 CONDUIT    105.44     0  03:34      0.26    0.13    0.87
  YS02006561YS02001783 CONDUIT    257.60     0  02:55      1.70    0.13    0.34
  YS02001783YS02001784 CONDUIT    257.60     0  02:55      1.16    0.36    0.46
  YS02001784YS02001785 CONDUIT    258.65     0  02:55      1.22    0.60    0.44
  YS02001788YS02001790 CONDUIT    258.77     0  02:56      1.78    0.19    0.33
  YS02001790YS02001791 CONDUIT    258.92     0  02:56      2.05    0.28    0.30
  YS02001791YS02001793 CONDUIT    263.50     0  03:02      4.14    0.11    0.20
  YS02001910YS02001907 CONDUIT     79.86     0  03:01      0.49    0.05    0.69
  YS02001786YS02001788 CONDUIT    258.70     0  02:56      1.65    0.50    0.35
  YS02001915YS02001910 CONDUIT     79.72     0  03:00      0.44    0.04    0.48
  YS02001918YS02001915 CONDUIT     27.10     0  03:03      0.44    0.01    0.23
  YS02001923YS02001920 CONDUIT     24.26     0  03:02      0.40    0.01    0.13
  YS02001926YS02001923 CONDUIT     24.23     0  03:02      0.45    0.03    0.12
  YS02001929YS02001926 CONDUIT     24.23     0  03:01      0.47    0.01    0.12
  YS02001920YS02001918 CONDUIT     27.11     0  03:03      0.42    0.03    0.14
  YS02001629YS02163301 CONDUIT     68.76     0  03:21      0.11    0.08    0.81
  YS02001619YS02001622 CONDUIT     60.35     0  03:21      0.63    0.09    0.42
  YS02001622YS02001625 CONDUIT     65.13     0  03:20      0.23    0.03    0.59
  YS02001625YS02001629 CONDUIT     77.33     0  03:22      0.23    0.04    0.57
  YS02163301YS02001633 CONDUIT     61.10     0  03:19      0.10    0.06    0.86
  YS02163601YS02164001 CONDUIT    114.77     0  03:05      0.15    0.10    0.91
  YS02164001YS02001641 CONDUIT    114.06     0  03:08      0.16    0.16    0.89
  YS02001641YS02001644 CONDUIT    116.63     0  03:08      0.16    0.38    0.90
  YS02001647YS02001649 CONDUIT    173.38     0  03:05      0.25    0.09    0.83
  YS02006553YS02006556 CONDUIT    175.65     0  03:02      0.27    0.15    0.78
  YS02006556YS02006558 CONDUIT    175.82     0  03:02      0.26    0.14    0.80
  YSB6556YSB1171       CONDUIT     10.84     0  02:20      0.05    0.01    0.55
  YS02001907YS02006553 CONDUIT    175.48     0  02:58      0.22    0.21    0.88
  YS02006558YS02006561 CONDUIT    257.60     0  02:55      2.18    0.57    0.43
  YS02001633YS02163601 CONDUIT    123.50     0  03:23      0.17    0.13    0.90
  YS02001644YS02001647 CONDUIT    168.13     0  03:14      0.25    0.10    0.82
  YS02001745YS02001748 CONDUIT     58.39     0  03:01      1.34    0.02    0.16
  YS02001748YS02001751 CONDUIT    179.01     0  03:30      1.04    0.09    0.35
  YS02001751YS02001754 CONDUIT    103.78     0  05:03      0.94    0.05    0.61
  YS02001754YS02001757 CONDUIT    183.33     0  03:26      0.33    0.07    0.90
  YS02001882YS02001884 CONDUIT      3.50     0  02:09      0.06    0.00    0.42
  YS02001884YS02001887 CONDUIT     10.16     0  02:09      0.06    0.01    0.51
  YS02001890YS02001895 CONDUIT     97.40     0  02:48      0.26    0.05    0.48
  YS02001895YS02001898 CONDUIT     97.29     0  02:47      0.47    0.17    0.35
  YS02001898YS02001901 CONDUIT     97.22     0  02:49      0.31    0.06    0.42
  YS02001901YS02001904 CONDUIT     96.83     0  02:50      0.26    0.15    0.48
  YS02001904YS02001907 CONDUIT     96.95     0  02:52      0.18    0.03    0.64
  YS02001887YS02001890 CONDUIT     97.70     0  02:45      0.21    0.17    0.57
  YS02001652YS02001649 CONDUIT    150.44     0  03:28      0.32    0.07    0.86
  YS02001655YS02001652 CONDUIT    106.55     0  03:19      1.02    0.05    0.63
  YS02001658YS02001655 CONDUIT    157.53     0  03:27      1.20    0.07    0.33
  YS02001661YS02001658 CONDUIT     69.40     0  02:46      1.37    0.03    0.16
  YS02001664YS02001661 CONDUIT     69.41     0  02:46      1.01    0.02    0.14
  YSB1154YSB6556       CONDUIT     10.71     0  02:18      0.19    0.02    0.44
  YSB1174YSB1171       CONDUIT     10.02     0  02:13      0.05    0.02    0.56
  YSB1171HS02004479    CONDUIT     19.97     0  02:19      0.54    0.01    0.43
  HS02004881HS02006253 CONDUIT     32.42     0  02:19      1.55    0.01    0.23
  YS02001793JiankangQianchi CONDUIT    264.52     0  03:02     12.58    0.02    0.55
  YS02001757CaochengTiaoxuchi CONDUIT    425.34     0  03:04      1.00    0.19    0.62
  WSF200WS02003060     CONDUIT    485.63     0  02:51      1.68    0.11    0.31
  1                    CONDUIT    835.11     0  03:05      3.17    0.29    0.37
  2                    CONDUIT    108.97     0  02:41      4.97    0.26    0.35
  3                    CONDUIT    490.14     0  03:00      9.75    0.78    0.67
  4                    CONDUIT      0.00     0  00:00      0.00    0.00    0.00
  CC-Pump-1            PUMP       200.00     0  02:30              1.00
  CC-Pump-2            PUMP       200.00     0  02:40              1.00
  JK-Pump-1            PUMP       300.00     0  03:00              1.00
  JK-Pump-2            PUMP       300.00     0  02:40              1.00
  XR-Pump-1            PUMP        95.00     0  00:50              1.00
  XR-Pump-2            PUMP        95.00     0  00:00              1.00
  XR-Pump-3            PUMP        95.00     0  00:20              1.00
  XR-Pump-4            PUMP        95.00     0  00:00              1.00
  
  
  ***************************
  Flow Classification Summary
  ***************************
  
  -------------------------------------------------------------------------------------
                      Adjusted    ---------- Fraction of Time in Flow Class ---------- 
                       /Actual         Up    Down  Sub   Sup   Up    Down  Norm  Inlet 
  Conduit               Length    Dry  Dry   Dry   Crit  Crit  Crit  Crit  Ltd   Ctrl  
  -------------------------------------------------------------------------------------
  WS02003066WSF200        1.00   0.05  0.00  0.00  0.00  0.95  0.00  0.00  0.78  0.00
  WS02006287WS02006284    1.00   0.04  0.01  0.00  0.70  0.24  0.00  0.00  0.78  0.00
  WS02006284WS02006280    1.00   0.04  0.00  0.00  0.00  0.00  0.00  0.96  0.00  0.00
  WS02006280WS02006229    1.00   0.04  0.00  0.00  0.00  0.00  0.00  0.96  0.00  0.00
  WS02006229WS02006228    1.00   0.00  0.00  0.00  1.00  0.00  0.00  0.00  0.00  0.00
  WS02006256WS02006235    1.00   0.00  0.00  0.00  1.00  0.00  0.00  0.00  0.00  0.00
  WS02006253WS02006251    1.00   0.02  0.02  0.00  0.96  0.00  0.00  0.00  0.00  0.00
  WS02006252WS02006251    1.00   0.08  0.00  0.00  0.00  0.00  0.92  0.00  0.00  0.00
  WS02006251WS02006249    1.00   0.00  0.00  0.00  1.00  0.00  0.00  0.00  0.29  0.00
  WS02006249WS02006248    1.00   0.00  0.00  0.00  0.91  0.00  0.08  0.00  0.00  0.00
  WS02006248WS02006247    1.00   0.00  0.00  0.00  0.98  0.00  0.00  0.02  0.18  0.00
  WS02006247WS02006245    1.00   0.00  0.00  0.00  0.98  0.00  0.00  0.02  0.00  0.00
  WS02006245WS02006243    1.00   0.01  0.00  0.00  0.95  0.00  0.00  0.05  0.01  0.00
  WS02006243WS02006242    1.00   0.01  0.00  0.00  0.99  0.00  0.00  0.00  0.25  0.00
  WS02006242WS02006240    1.00   0.01  0.00  0.00  0.99  0.00  0.00  0.00  0.00  0.00
  WS02006240WS02006239    1.00   0.00  0.00  0.00  0.95  0.00  0.00  0.04  0.01  0.00
  WS02006239WS02006238    1.00   0.00  0.00  0.00  1.00  0.00  0.00  0.00  0.01  0.00
  WS02006238WS02006235    1.00   0.00  0.00  0.00  1.00  0.00  0.00  0.00  0.00  0.00
  WS02006235WS02006234    1.00   0.00  0.00  0.00  0.96  0.00  0.04  0.00  0.00  0.00
  WS02006234WS02006232    1.00   0.00  0.00  0.00  1.00  0.00  0.00  0.00  0.00  0.00
  WS02006232WS02006231    1.00   0.00  0.00  0.00  0.99  0.00  0.00  0.00  0.00  0.00
  WS02006231WS02006230    1.00   0.01  0.00  0.00  0.63  0.00  0.37  0.00  0.00  0.00
  WS02006230WS02006229    1.00   0.00  0.00  0.00  0.99  0.00  0.00  0.01  0.01  0.00
  WS02006228WS02006109    1.00   0.00  0.00  0.00  1.00  0.00  0.00  0.00  0.00  0.00
  WS02006116WS02004401    1.00   0.03  0.00  0.00  0.97  0.00  0.00  0.00  0.00  0.00
  WS02006115WS02006116    1.00   0.02  0.00  0.00  0.97  0.00  0.00  0.01  0.00  0.00
  WS02006113WS02006111    1.00   0.01  0.00  0.00  0.00  0.99  0.00  0.00  0.11  0.00
  WS02006112WS02006115    1.00   0.02  0.01  0.00  0.97  0.00  0.00  0.00  0.00  0.00
  WS02006111WS02006112    1.00   0.02  0.00  0.00  0.98  0.00  0.00  0.00  0.95  0.00
  WS02006110WS02006113    1.00   0.00  0.01  0.00  0.99  0.00  0.00  0.00  0.00  0.00
  WS02006109WS02006110    1.00   0.00  0.00  0.00  1.00  0.00  0.00  0.00  0.00  0.00
  WS02004411WS02004412    1.00   0.04  0.00  0.00  0.96  0.00  0.00  0.00  0.00  0.00
  WS02004401WS02004402    1.00   0.03  0.00  0.00  0.97  0.00  0.00  0.00  0.00  0.00
  WS02004413WS02003067    1.00   0.04  0.01  0.00  0.00  0.00  0.95  0.00  0.00  0.00
  WS02004412WS02004413    1.00   0.04  0.00  0.00  0.96  0.00  0.00  0.00  0.01  0.00
  WS02004410WS02004411    1.00   0.04  0.00  0.00  0.96  0.00  0.00  0.00  0.01  0.00
  WS02004409WS02004410    1.00   0.03  0.00  0.00  0.97  0.00  0.00  0.00  0.03  0.00
  WS02004407WS02004409    1.00   0.03  0.00  0.00  0.96  0.00  0.00  0.00  0.91  0.00
  WS02004406WS02004407    1.00   0.00  0.03  0.00  0.97  0.00  0.00  0.00  0.00  0.00
  WS02004405WS02004406    1.00   0.00  0.00  0.00  1.00  0.00  0.00  0.00  0.03  0.00
  WS02004404WS02004405    1.00   0.00  0.00  0.00  1.00  0.00  0.00  0.00  0.00  0.00
  WS02004403WS02004404    1.00   0.00  0.03  0.00  0.97  0.00  0.00  0.00  0.00  0.00
  WS02004402WS02004403    1.00   0.03  0.00  0.00  0.97  0.00  0.00  0.00  0.00  0.00
  WS02004139WS02001211    1.00   0.00  0.00  0.00  1.00  0.00  0.00  0.00  0.00  0.00
  WS02004138WS02004139    1.00   0.00  0.00  0.00  1.00  0.00  0.00  0.00  1.00  0.00
  WS02003067WS02003066    1.00   0.05  0.00  0.00  0.95  0.00  0.00  0.00  0.00  0.00
  WS02001213WS02003059    1.00   0.00  0.00  0.00  1.00  0.00  0.00  0.00  0.00  0.00
  WS02001212WS02001213    1.00   0.00  0.00  0.00  0.91  0.00  0.09  0.00  0.00  0.00
  WS02001211WS02001212    1.00   0.00  0.00  0.00  1.00  0.00  0.00  0.00  0.00  0.00
  WS02003072WS02003073    1.00   0.00  0.00  0.00  0.00  0.00  0.00  1.00  0.00  0.00
  WS02003069WS02003072    1.00   0.00  0.00  0.00  1.00  0.00  0.00  0.00  0.25  0.00
  WS02003060WS02003069    1.00   0.00  0.00  0.00  1.00  0.00  0.00  0.00  0.12  0.00
  WS02003059WS02003060    1.00   0.00  0.00  0.00  1.00  0.00  0.00  0.00  0.01  0.00
  HS02004901HS02004770    1.00   0.04  0.00  0.00  0.96  0.00  0.00  0.00  0.03  0.00
  HS02004876HS02004881    1.00   0.00  0.00  0.00  1.00  0.00  0.00  0.00  0.00  0.00
  HS02004870HS02004876    1.00   0.00  0.00  0.00  1.00  0.00  0.00  0.00  0.95  0.00
  HS02004842HS02004848    1.00   0.00  0.04  0.00  0.96  0.00  0.00  0.00  0.69  0.00
  HS02004837HS02004842    1.00   0.00  0.00  0.00  1.00  0.00  0.00  0.00  0.11  0.00
  HS02004830HS02004837    1.00   0.00  0.00  0.00  1.00  0.00  0.00  0.00  0.99  0.00
  HS02004824HS02004830    1.00   0.00  0.00  0.00  1.00  0.00  0.00  0.00  0.00  0.00
  HS02004817HS02004824    1.00   0.00  0.00  0.00  1.00  0.00  0.00  0.00  1.00  0.00
  HS02004770HS02004777    1.00   0.00  0.04  0.00  0.96  0.00  0.00  0.00  0.07  0.00
  HS02004799HS02004480    1.00   0.00  0.01  0.00  0.94  0.00  0.05  0.00  0.00  0.00
  HS02004792HS02004799    1.00   0.00  0.00  0.00  1.00  0.00  0.00  0.00  0.98  0.00
  HS02004788HS02004792    1.00   0.00  0.00  0.00  1.00  0.00  0.00  0.00  0.98  0.00
  HS02004785HS02004788    1.00   0.00  0.00  0.00  1.00  0.00  0.00  0.00  0.00  0.00
  HS02004777HS02004785    1.00   0.00  0.00  0.00  1.00  0.00  0.00  0.00  0.21  0.00
  HS02004480HS02004478    1.00   0.05  0.00  0.00  0.74  0.00  0.00  0.21  0.00  0.00
  HS02004479HS02004480    1.00   0.01  0.00  0.00  0.99  0.00  0.00  0.00  0.16  0.00
  HS02004862HS02004870    1.00   0.00  0.00  0.00  1.00  0.00  0.00  0.00  0.05  0.00
  HS02004848HS02004852    1.00   0.04  0.00  0.00  0.96  0.00  0.00  0.00  0.70  0.00
  HS02004856HS02004862    1.00   0.00  0.07  0.00  0.93  0.00  0.00  0.00  0.74  0.00
  HS02004852HS02004856    1.00   0.04  0.01  0.00  0.95  0.00  0.00  0.00  0.82  0.00
  HS02004802HS02004478    1.00   0.04  0.01  0.00  0.95  0.00  0.00  0.00  0.00  0.00
  HS02004478WS02006287    1.00   0.05  0.00  0.00  0.91  0.04  0.00  0.00  0.81  0.00
  HS02004817HS02004807    1.00   0.00  0.04  0.00  0.96  0.00  0.00  0.00  0.00  0.00
  HS02004807HS02004802    1.00   0.04  0.00  0.00  0.95  0.00  0.00  0.00  0.01  0.00
  YS02001759YS02001757    1.00   0.00  0.00  0.00  1.00  0.00  0.00  0.00  0.17  0.00
  YS02001762YS02001759    1.00   0.00  0.00  0.00  1.00  0.00  0.00  0.00  0.05  0.00
  YS02001765YS02001762    1.00   0.00  0.00  0.00  1.00  0.00  0.00  0.00  0.23  0.00
  YS02001770YS02001767    1.00   0.00  0.00  0.00  1.00  0.00  0.00  0.00  0.00  0.00
  YS02001774YS02001770    1.00   0.00  0.05  0.00  0.95  0.00  0.00  0.00  0.07  0.00
  YS02001779YS02001774    1.00   0.00  0.00  0.00  1.00  0.00  0.00  0.00  0.27  0.00
  YS02001649YS02001757    1.00   0.00  0.00  0.00  1.00  0.00  0.00  0.00  0.19  0.00
  YS02001767YS02001765    1.00   0.00  0.00  0.00  1.00  0.00  0.00  0.00  0.01  0.00
  YS02006561YS02001783    1.00   0.07  0.00  0.00  0.00  0.93  0.00  0.00  0.73  0.00
  YS02001783YS02001784    1.00   0.00  0.07  0.00  0.93  0.00  0.00  0.00  0.00  0.00
  YS02001784YS02001785    1.00   0.00  0.00  0.00  1.00  0.00  0.00  0.00  0.26  0.00
  YS02001788YS02001790    1.00   0.00  0.00  0.00  0.07  0.93  0.00  0.00  0.82  0.00
  YS02001790YS02001791    1.00   0.00  0.00  0.00  0.00  1.00  0.00  0.00  0.48  0.00
  YS02001791YS02001793    1.00   0.00  0.00  0.00  0.00  1.00  0.00  0.00  0.00  0.00
  YS02001910YS02001907    1.00   0.00  0.00  0.00  0.99  0.00  0.00  0.00  0.13  0.00
  YS02001786YS02001788    1.00   0.00  0.00  0.00  0.07  0.93  0.00  0.00  0.00  0.00
  YS02001915YS02001910    1.00   0.00  0.00  0.00  1.00  0.00  0.00  0.00  0.24  0.00
  YS02001918YS02001915    1.00   0.00  0.00  0.00  1.00  0.00  0.00  0.00  0.81  0.00
  YS02001923YS02001920    1.00   0.00  0.00  0.00  1.00  0.00  0.00  0.00  1.00  0.00
  YS02001926YS02001923    1.00   0.00  0.03  0.00  0.00  0.00  0.97  0.00  0.00  0.00
  YS02001929YS02001926    1.00   0.00  0.04  0.00  0.96  0.00  0.00  0.00  0.86  0.00
  YS02001920YS02001918    1.00   0.00  0.00  0.00  1.00  0.00  0.00  0.00  0.00  0.00
  YS02001629YS02163301    1.00   0.06  0.00  0.00  0.94  0.00  0.00  0.00  0.00  0.00
  YS02001619YS02001622    1.00   0.04  0.00  0.00  0.96  0.00  0.00  0.00  0.00  0.00
  YS02001622YS02001625    1.00   0.04  0.00  0.00  0.96  0.00  0.00  0.00  0.13  0.00
  YS02001625YS02001629    1.00   0.04  0.03  0.00  0.92  0.00  0.01  0.00  0.00  0.00
  YS02163301YS02001633    1.00   0.00  0.06  0.00  0.94  0.00  0.00  0.00  0.00  0.00
  YS02163601YS02164001    1.00   0.00  0.03  0.00  0.97  0.00  0.00  0.00  0.00  0.00
  YS02164001YS02001641    1.00   0.00  0.03  0.00  0.97  0.00  0.00  0.00  0.07  0.00
  YS02001641YS02001644    1.00   0.00  0.00  0.00  1.00  0.00  0.00  0.00  0.00  0.00
  YS02001647YS02001649    1.00   0.00  0.07  0.00  0.93  0.00  0.00  0.00  0.01  0.00
  YS02006553YS02006556    1.00   0.00  0.00  0.00  1.00  0.00  0.00  0.00  0.03  0.00
  YS02006556YS02006558    1.00   0.00  0.00  0.00  1.00  0.00  0.00  0.00  0.00  0.00
  YSB6556YSB1171          1.00   0.01  0.03  0.00  0.96  0.00  0.00  0.00  0.00  0.00
  YS02001907YS02006553    1.00   0.00  0.00  0.00  1.00  0.00  0.00  0.00  0.00  0.00
  YS02006558YS02006561    1.00   0.07  0.00  0.00  0.00  0.93  0.00  0.00  0.72  0.00
  YS02001633YS02163601    1.00   0.00  0.00  0.00  1.00  0.00  0.00  0.00  0.20  0.00
  YS02001644YS02001647    1.00   0.00  0.07  0.00  0.93  0.00  0.00  0.00  0.00  0.00
  YS02001745YS02001748    1.00   0.00  0.00  0.00  0.15  0.13  0.00  0.72  0.20  0.00
  YS02001748YS02001751    1.00   0.00  0.00  0.00  0.98  0.02  0.00  0.00  0.54  0.00
  YS02001751YS02001754    1.00   0.00  0.00  0.00  0.93  0.00  0.00  0.07  0.02  0.00
  YS02001754YS02001757    1.00   0.00  0.00  0.00  1.00  0.00  0.00  0.00  0.27  0.00
  YS02001882YS02001884    1.00   0.06  0.00  0.00  0.94  0.00  0.00  0.00  0.00  0.00
  YS02001884YS02001887    1.00   0.03  0.01  0.00  0.96  0.00  0.00  0.00  0.00  0.00
  YS02001890YS02001895    1.00   0.00  0.06  0.00  0.94  0.00  0.00  0.00  0.00  0.00
  YS02001895YS02001898    1.00   0.06  0.00  0.00  0.93  0.00  0.01  0.00  0.00  0.00
  YS02001898YS02001901    1.00   0.06  0.00  0.00  0.94  0.00  0.00  0.00  0.02  0.00
  YS02001901YS02001904    1.00   0.06  0.00  0.00  0.94  0.00  0.00  0.00  0.00  0.00
  YS02001904YS02001907    1.00   0.00  0.06  0.00  0.94  0.00  0.00  0.00  0.00  0.00
  YS02001887YS02001890    1.00   0.00  0.00  0.00  0.99  0.00  0.01  0.00  0.00  0.00
  YS02001652YS02001649    1.00   0.00  0.00  0.00  1.00  0.00  0.00  0.00  0.26  0.00
  YS02001655YS02001652    1.00   0.00  0.00  0.00  0.93  0.00  0.00  0.07  0.02  0.00
  YS02001658YS02001655    1.00   0.00  0.05  0.00  0.92  0.02  0.00  0.00  0.57  0.00
  YS02001661YS02001658    1.00   0.05  0.00  0.00  0.19  0.76  0.00  0.00  0.72  0.00
  YS02001664YS02001661    1.00   0.04  0.00  0.00  0.83  0.13  0.00  0.00  0.86  0.00
  YSB1154YSB6556          1.00   0.04  0.00  0.00  0.96  0.00  0.00  0.00  0.02  0.00
  YSB1174YSB1171          1.00   0.03  0.01  0.00  0.96  0.00  0.00  0.00  0.00  0.00
  YSB1171HS02004479       1.00   0.01  0.00  0.00  0.97  0.00  0.00  0.02  0.13  0.00
  HS02004881HS02006253    1.00   0.02  0.00  0.00  0.82  0.01  0.00  0.14  0.62  0.00
  YS02001793JiankangQianchi    1.00   0.00  0.00  0.00  0.20  0.80  0.00  0.00  0.22  0.00
  YS02001757CaochengTiaoxuchi    1.00   0.00  0.08  0.00  0.92  0.00  0.00  0.00  0.00  0.00
  WSF200WS02003060        1.00   0.00  0.05  0.00  0.75  0.20  0.00  0.00  0.27  0.00
  1                       1.00   0.00  0.00  0.00  0.00  1.00  0.00  0.00  0.39  0.00
  2                       1.00   0.68  0.00  0.00  0.00  0.32  0.00  0.00  0.07  0.00
  3                       1.00   0.21  0.00  0.00  0.00  0.79  0.00  0.00  0.34  0.00
  4                       1.00   1.00  0.00  0.00  0.00  0.00  0.00  0.00  0.00  0.00
  
  
  *************************
  Conduit Surcharge Summary
  *************************
  
  ----------------------------------------------------------------------------
                                                           Hours        Hours 
                         --------- Hours Full --------   Above Full   Capacity
  Conduit                Both Ends  Upstream  Dnstream   Normal Flow   Limited
  ----------------------------------------------------------------------------
  WS02006229WS02006228        1.48      1.75      1.48      4.37         1.48
  WS02006256WS02006235        5.51      5.51      7.63      2.47         0.01
  WS02006252WS02006251        1.11      1.11      2.19      1.81         0.01
  WS02006251WS02006249        0.01      0.01      0.01      1.11         0.01
  WS02006249WS02006248        0.01      0.01      0.01      4.43         0.01
  WS02006247WS02006245        0.01      0.01      0.01      4.88         0.01
  WS02006243WS02006242        0.01      0.01      0.91      0.01         0.01
  WS02006242WS02006240        0.06      0.06      1.36      2.17         0.01
  WS02006240WS02006239        0.09      0.09      0.12      0.08         0.01
  WS02006239WS02006238        1.15      1.16      1.27      0.16         0.08
  WS02006238WS02006235        1.05      1.05      1.59      0.01         0.01
  WS02006235WS02006234        0.06      0.06      0.83      5.53         0.01
  WS02006234WS02006232        0.15      0.15      1.76      0.01         0.01
  WS02006232WS02006231        0.01      0.01      1.76      0.01         0.01
  WS02006231WS02006230        0.01      0.01      0.01      5.54         0.01
  WS02006230WS02006229        2.84      3.87      2.84      5.64         2.84
  WS02006228WS02006109        1.62      2.19      1.62      5.15         1.62
  WS02006111WS02006112        0.01      0.01      4.52      0.01         0.01
  WS02006110WS02006113        0.01      0.01      1.98      0.01         0.01
  WS02006109WS02006110        0.01      0.01      2.19      0.01         0.01
  WS02004404WS02004405        0.01      0.01      0.01      5.57         0.01
  WS02003072WS02003073        0.01      0.01      0.01      5.26         0.01
  YS02001759YS02001757        0.01      0.01      1.61      0.01         0.01
  YS02001649YS02001757        0.01      0.01      1.61      0.01         0.01
  YS02001754YS02001757        0.01      0.01      1.61      0.01         0.01
  YS02001793JiankangQianchi        0.01      0.01      0.97      0.01         0.01
  YS02001757CaochengTiaoxuchi        0.01      0.01      1.61      0.01         0.01
  
  
  ***************
  Pumping Summary
  ***************
  
  ---------------------------------------------------------------------------------------------------------
                                                  Min       Avg       Max     Total     Power    % Time Off
                        Percent   Number of      Flow      Flow      Flow    Volume     Usage    Pump Curve
  Pump                 Utilized   Start-Ups       LPS       LPS       LPS  10^6 ltr     Kw-hr    Low   High
  ---------------------------------------------------------------------------------------------------------
  CC-Pump-1               61.49           6      0.00    126.18    200.00     2.181      9.55    0.0  100.0
  CC-Pump-2               65.75           5      0.00    141.73    200.00     2.576     11.05    0.0  100.0
  JK-Pump-1               78.72           7      0.00    100.11    300.00     1.622     31.36    0.0    0.0
  JK-Pump-2               87.22           4      0.00    124.75    300.00     2.405     42.88    0.0    0.0
  XR-Pump-1               85.10           5      0.00     69.85     95.00     1.767     30.68    0.0    0.0
  XR-Pump-2               97.86           6      0.00     72.06     95.00     1.995     35.37    0.0    0.0
  XR-Pump-3               82.96           6      0.00     73.34     95.00     1.681     30.16    0.0    0.0
  XR-Pump-4               89.35           7      0.00     66.74     95.00     1.681     29.48    0.0    0.0
  

  Analysis begun on:  Tue Dec 21 14:40:49 2021
  Analysis ended on:  Tue Dec 21 14:40:52 2021
  Total elapsed time: 00:00:03