
  EPA STORM WATER MANAGEMENT MODEL - VERSION 5.1 (Build 5.3.0.dev0)
  --------------------------------------------------------------

  WARNING 04: minimum elevation drop used for Conduit WS02004404WS02004405
  WARNING 03: negative offset ignored for Link YS02001904YS02001907
  
  *********************************************************
  NOTE: The summary statistics displayed in this report are
  based on results found at every computational time step,  
  not just on results from each reporting time step.
  *********************************************************
  
  ****************
  Analysis Options
  ****************
  Flow Units ............... LPS
  Process Models:
    Rainfall/Runoff ........ YES
    RDII ................... NO
    Snowmelt ............... NO
    Groundwater ............ NO
    Flow Routing ........... YES
    Ponding Allowed ........ NO
    Water Quality .......... NO
  Infiltration Method ...... HORTON
  Flow Routing Method ...... DYNWAVE
  Surcharge Method ......... EXTRAN
  Starting Date ............ 08/28/2015 08:00:00
  Ending Date .............. 08/28/2015 15:50:00
  Antecedent Dry Days ...... 8.0
  Report Time Step ......... 00:01:00
  Wet Time Step ............ 00:01:00
  Dry Time Step ............ 00:01:00
  Routing Time Step ........ 5.00 sec
  Variable Time Step ....... YES
  Maximum Trials ........... 8
  Number of Threads ........ 4
  Head Tolerance ........... 0.001500 m
  
  
  **************************        Volume         Depth
  Runoff Quantity Continuity     hectare-m            mm
  **************************     ---------       -------
  Total Precipitation ......         2.495         5.462
  Evaporation Loss .........         0.000         0.000
  Infiltration Loss ........         0.624         1.367
  Surface Runoff ...........         1.004         2.198
  Final Storage ............         0.867         1.898
  Continuity Error (%) .....        -0.018
  
  
  **************************        Volume        Volume
  Flow Routing Continuity        hectare-m      10^6 ltr
  **************************     ---------     ---------
  Dry Weather Inflow .......         0.616         6.165
  Wet Weather Inflow .......         1.003        10.034
  Groundwater Inflow .......         0.000         0.000
  RDII Inflow ..............         0.000         0.000
  External Inflow ..........         0.102         1.024
  External Outflow .........         1.634        16.340
  Flooding Loss ............         0.010         0.095
  Evaporation Loss .........         0.000         0.000
  Exfiltration Loss ........         0.000         0.000
  Initial Stored Volume ....         0.076         0.761
  Final Stored Volume ......         0.259         2.586
  Continuity Error (%) .....        -5.772
  
  
  *************************
  Highest Continuity Errors
  *************************
  Node JK-storage (-32.15%)
  Node HS02004842 (30.09%)
  Node YS02001884 (24.57%)
  Node YS02001774 (11.79%)
  Node YSB1171 (7.64%)
  
  
  ***************************
  Time-Step Critical Elements
  ***************************
  Link WS02006252WS02006251 (49.31%)
  Link 3 (37.82%)
  Link WS02006238WS02006235 (4.73%)
  Link WS02006280WS02006229 (1.95%)
  Link 2 (1.69%)
  
  
  ********************************
  Highest Flow Instability Indexes
  ********************************
  Link WS02006113WS02006111 (41)
  Link WS02006111WS02006112 (26)
  Link WS02006110WS02006113 (2)
  Link YS02163301YS02001633 (2)
  Link YS02001767YS02001765 (2)
  
  
  *************************
  Routing Time Step Summary
  *************************
  Minimum Time Step           :     0.50 sec
  Average Time Step           :     0.91 sec
  Maximum Time Step           :     5.00 sec
  Percent in Steady State     :    -0.00
  Average Iterations per Step :     2.15
  Percent Not Converging      :     1.88
  
  
  ***************************
  Subcatchment Runoff Summary
  ***************************
  
  ------------------------------------------------------------------------------------------------------------------------------
                            Total      Total      Total      Total     Imperv       Perv      Total       Total     Peak  Runoff
                           Precip      Runon       Evap      Infil     Runoff     Runoff     Runoff      Runoff   Runoff   Coeff
  Subcatchment                 mm         mm         mm         mm         mm         mm         mm    10^6 ltr      LPS
  ------------------------------------------------------------------------------------------------------------------------------
  sub0                       5.46       0.00       0.00       0.38       3.81       0.00       3.81        0.00     1.22   0.698
  sub1                       5.46       0.00       0.00       0.60       3.61       0.00       3.61        0.02     6.40   0.660
  sub2                       5.46       0.00       0.00       2.02       2.54       0.00       2.54        0.02     5.67   0.464
  sub3                       5.46       0.00       0.00       2.02       2.50       0.00       2.50        0.06    11.67   0.458
  sub4                       5.46       0.00       0.00       0.60       3.47       0.00       3.47        0.07    13.12   0.635
  sub5                       5.46       0.00       0.00       0.38       3.77       0.00       3.77        0.04    11.38   0.690
  sub7                       5.46       0.00       0.00       0.49       3.72       0.00       3.72        0.01     4.02   0.680
  sub8                       5.46       0.00       0.00       0.49       3.71       0.00       3.71        0.02     7.09   0.679
  sub9                       5.46       0.00       0.00       0.49       3.70       0.00       3.70        0.02     5.25   0.678
  sub10                      5.46       0.00       0.00       0.44       3.73       0.00       3.73        0.04    11.36   0.684
  sub11                      5.46       0.00       0.00       0.44       3.75       0.00       3.75        0.04    13.33   0.687
  sub12                      5.46       0.00       0.00       0.71       3.56       0.00       3.56        0.03    11.29   0.652
  sub14                      5.46       0.00       0.00       0.49       3.70       0.00       3.70        0.04    10.26   0.678
  sub15                      5.46       0.00       0.00       1.64       2.85       0.00       2.85        0.05    13.93   0.521
  sub16                      5.46       0.00       0.00       1.80       2.74       0.00       2.74        0.03     9.93   0.502
  sub17                      5.46       0.00       0.00       1.75       2.78       0.00       2.78        0.02     8.02   0.509
  sub22                      5.46       0.00       0.00       2.35       2.32       0.00       2.32        0.15    45.61   0.426
  sub23                      5.46       0.00       0.00       2.02       2.57       0.00       2.57        0.12    38.85   0.471
  sub60                      5.46       0.00       0.00       0.66       2.43       0.00       2.43        0.74    67.28   0.446
  sub61                      5.46       0.00       0.00       0.93       2.62       0.00       2.62        0.81    84.42   0.480
  sub62                      5.46       0.00       0.00       0.44       2.81       0.00       2.81        0.86    86.35   0.514
  sub63                      5.46       0.00       0.00       1.58       2.34       0.00       2.34        0.71    78.70   0.429
  sub64                      5.46       0.00       0.00       0.82       2.33       0.00       2.33        0.71    63.86   0.426
  sub65                      5.46       0.00       0.00       0.71       2.35       0.00       2.35        0.72    64.75   0.431
  sub66                      5.46       0.00       0.00       1.58       2.03       0.00       2.03        0.62    58.67   0.373
  sub67                      5.46       0.00       0.00       0.44       3.11       0.00       3.11        0.96   110.55   0.569
  sub68                      5.46       0.00       0.00       0.76       2.80       0.00       2.80        0.86    93.27   0.512
  sub69                      5.46       0.00       0.00       0.82       3.04       0.00       3.04        0.71    92.37   0.557
  sub70                      5.46       3.10       0.00       2.91       3.68       0.00       3.68        0.84    73.56   0.429
  sub71                      5.46       0.00       0.00       0.44       2.68       0.00       2.68        0.63    60.33   0.490
  sub72                      5.46       0.00       0.00       0.38       1.86       0.00       1.86        0.38    28.02   0.340
  sub73                      5.46       3.58       0.00       3.07       3.70       0.00       3.70        0.87    62.93   0.409
  sub74                      5.46       0.00       0.00       4.10       0.92       0.00       0.92        0.37    51.48   0.168
  
  
  ******************
  Node Depth Summary
  ******************
  
  ---------------------------------------------------------------------------------
                                 Average  Maximum  Maximum  Time of Max    Reported
                                   Depth    Depth      HGL   Occurrence   Max Depth
  Node                 Type       Meters   Meters   Meters  days hr:min      Meters
  ---------------------------------------------------------------------------------
  WS02001211           JUNCTION     0.66     0.78     5.62     0  05:00        0.78
  WS02001212           JUNCTION     0.38     0.48     5.55     0  04:59        0.48
  WS02001213           JUNCTION     0.61     0.72     5.49     0  04:57        0.72
  WS02003069           JUNCTION     0.43     0.53     5.11     0  03:13        0.53
  WS02003072           JUNCTION     0.50     0.59     4.96     0  03:14        0.59
  WS02003073           JUNCTION     0.30     0.36     4.42     0  03:15        0.36
  WS02003060           JUNCTION     0.38     0.47     5.40     0  03:12        0.47
  WS02003066           JUNCTION     0.23     0.27     5.82     0  02:37        0.27
  WS02003059           JUNCTION     0.67     0.77     5.46     0  04:58        0.77
  WS02003067           JUNCTION     0.57     0.65     5.97     0  02:37        0.65
  WS02004401           JUNCTION     0.66     0.77     6.77     0  02:33        0.77
  WS02004402           JUNCTION     0.69     0.80     6.76     0  02:33        0.80
  WS02004403           JUNCTION     0.71     0.82     6.75     0  02:33        0.82
  WS02004404           JUNCTION     0.79     0.90     6.75     0  02:33        0.90
  WS02004406           JUNCTION     0.80     0.90     6.73     0  02:34        0.90
  WS02004409           JUNCTION     0.48     0.58     6.35     0  02:36        0.58
  WS02004410           JUNCTION     0.50     0.60     6.32     0  02:36        0.60
  WS02004411           JUNCTION     0.52     0.62     6.30     0  02:36        0.62
  WS02004412           JUNCTION     0.53     0.63     6.27     0  02:36        0.63
  WS02004413           JUNCTION     0.69     0.79     6.26     0  02:36        0.79
  WS02004405           JUNCTION     0.79     0.89     6.74     0  02:33        0.89
  WS02006109           JUNCTION     0.74     0.88     7.50     0  02:29        0.88
  WS02006110           JUNCTION     0.73     0.86     7.44     0  02:29        0.86
  WS02006111           JUNCTION     0.21     0.26     6.97     0  02:30        0.26
  WS02006112           JUNCTION     0.83     0.95     6.84     0  02:32        0.95
  WS02006113           JUNCTION     0.33     0.41     7.31     0  02:29        0.41
  WS02006115           JUNCTION     0.55     0.66     6.80     0  02:33        0.66
  WS02006116           JUNCTION     0.63     0.75     6.79     0  02:33        0.75
  WS02006230           JUNCTION     0.70     0.87     7.62     0  02:29        0.87
  WS02006231           JUNCTION     0.46     0.58     7.70     0  04:35        0.58
  WS02006232           JUNCTION     0.60     0.73     7.77     0  05:57        0.73
  WS02006234           JUNCTION     0.52     0.68     7.84     0  05:57        0.68
  WS02006235           JUNCTION     0.55     0.72     7.88     0  05:56        0.72
  WS02006238           JUNCTION     0.58     0.75     7.89     0  05:57        0.75
  WS02006240           JUNCTION     0.48     0.68     7.97     0  05:57        0.68
  WS02006242           JUNCTION     0.53     0.75     8.02     0  05:57        0.75
  WS02006243           JUNCTION     0.41     0.64     8.06     0  05:57        0.64
  WS02006245           JUNCTION     0.39     0.62     8.10     0  05:57        0.62
  WS02006247           JUNCTION     0.41     0.63     8.13     0  05:57        0.63
  WS02006248           JUNCTION     0.36     0.57     8.16     0  05:58        0.57
  WS02006249           JUNCTION     0.40     0.59     8.19     0  05:58        0.59
  WS02006239           JUNCTION     0.53     0.73     7.94     0  05:57        0.73
  WS02006251           JUNCTION     0.39     0.62     8.29     0  04:37        0.62
  WS02006252           JUNCTION     0.35     0.58     8.83     0  05:40        0.58
  WS02006253           JUNCTION     0.41     0.64     8.29     0  04:37        0.64
  WS02006256           JUNCTION     1.01     1.20     8.14     0  03:00        1.20
  WS02004138           JUNCTION     0.15     0.19     7.44     0  04:52        0.19
  WS02004407           JUNCTION     0.22     0.27     6.58     0  02:34        0.27
  WS02006228           JUNCTION     0.73     0.90     7.55     0  02:29        0.90
  WS02006229           JUNCTION     0.70     0.88     7.58     0  02:29        0.88
  WS02006280           JUNCTION     0.05     0.14     8.41     0  02:20        0.14
  WS02006284           JUNCTION     0.34     0.47     8.87     0  02:20        0.47
  WS02006287           JUNCTION     0.08     0.20     9.15     0  02:20        0.20
  WSF200               JUNCTION     0.21     0.27     5.50     0  02:37        0.27
  HS02004901           JUNCTION     0.11     0.22    10.04     0  02:17        0.22
  HS02004881           JUNCTION     0.01     0.02     9.05     0  02:19        0.02
  HS02004876           JUNCTION     0.03     0.10     9.13     0  02:19        0.10
  HS02004870           JUNCTION     0.01     0.04     9.32     0  02:20        0.04
  HS02004862           JUNCTION     0.01     0.04     9.43     0  02:21        0.04
  HS02004856           JUNCTION     0.07     0.10     9.53     0  02:20        0.10
  HS02004852           JUNCTION     0.01     0.02     9.54     0  02:21        0.02
  HS02004848           JUNCTION     0.01     0.02     9.63     0  02:19        0.02
  HS02004842           JUNCTION     0.33     0.36     9.63     0  02:19        0.36
  HS02004837           JUNCTION     0.03     0.04     9.62     0  02:19        0.04
  HS02004830           JUNCTION     0.04     0.06     9.53     0  02:20        0.06
  HS02004824           JUNCTION     0.02     0.04     9.44     0  02:23        0.04
  HS02004817           JUNCTION     0.42     0.51     9.36     0  02:20        0.51
  HS02004807           JUNCTION     0.11     0.19     9.36     0  02:20        0.19
  HS02004802           JUNCTION     0.15     0.23     9.35     0  02:20        0.23
  HS02004799           JUNCTION     0.10     0.24     9.45     0  02:18        0.24
  HS02004792           JUNCTION     0.02     0.09     9.61     0  02:17        0.09
  HS02004788           JUNCTION     0.02     0.07     9.96     0  02:18        0.07
  HS02004785           JUNCTION     0.03     0.12    10.03     0  02:18        0.12
  HS02004777           JUNCTION     0.13     0.24    10.04     0  02:18        0.24
  HS02004770           JUNCTION     0.10     0.21    10.04     0  02:18        0.21
  HS02004480           JUNCTION     0.06     0.18     9.42     0  02:18        0.18
  HS02004479           JUNCTION     0.10     0.22     9.43     0  02:18        0.22
  HS02004478           JUNCTION     0.05     0.12     9.34     0  02:19        0.12
  YS02001745           JUNCTION     0.07     0.11     7.63     0  03:01        0.11
  YS02001748           JUNCTION     0.27     0.47     7.55     0  04:03        0.47
  YS02001751           JUNCTION     0.44     0.68     7.56     0  04:04        0.66
  YS02001754           JUNCTION     0.69     0.95     7.56     0  04:05        0.95
  YS02001762           JUNCTION     0.89     1.23     7.63     0  03:32        1.20
  YS02001765           JUNCTION     0.84     1.17     7.62     0  03:32        1.13
  YS02001767           JUNCTION     0.80     1.22     7.71     0  03:32        1.05
  YS02001770           JUNCTION     0.80     1.04     7.54     0  04:05        1.04
  YS02001774           JUNCTION     0.87     1.11     7.53     0  03:58        1.11
  YS02001779           JUNCTION     0.62     0.85     7.54     0  04:03        0.85
  YS02001882           JUNCTION     0.27     0.43     7.14     0  02:58        0.43
  YS02001884           JUNCTION     0.36     0.53     7.14     0  02:58        0.52
  YS02001759           JUNCTION     0.92     1.26     7.63     0  03:32        1.23
  YS02001887           JUNCTION     0.44     0.60     7.14     0  02:58        0.60
  YS02001890           JUNCTION     0.47     0.63     7.14     0  02:58        0.63
  YS02001898           JUNCTION     0.24     0.39     7.12     0  02:59        0.39
  YS02001901           JUNCTION     0.36     0.52     7.12     0  02:59        0.52
  YS02001904           JUNCTION     0.34     0.49     7.12     0  03:00        0.49
  YS02001907           JUNCTION     0.67     0.83     7.12     0  02:59        0.83
  YS02001910           JUNCTION     0.46     0.62     7.12     0  02:59        0.62
  YS02001915           JUNCTION     0.26     0.40     7.12     0  02:59        0.40
  YS02001918           JUNCTION     0.07     0.09     7.16     0  03:03        0.09
  YS02001619           JUNCTION     0.40     0.62     7.55     0  03:48        0.61
  YS02001629           JUNCTION     0.75     0.99     7.54     0  04:06        0.99
  YS02001641           JUNCTION     0.85     1.20     7.63     0  03:52        1.13
  YS02001644           JUNCTION     0.86     1.17     7.60     0  03:52        1.13
  YS02001652           JUNCTION     0.70     0.95     7.55     0  04:00        0.95
  YS02001655           JUNCTION     0.47     0.69     7.54     0  03:43        0.69
  YS02001920           JUNCTION     0.17     0.20     7.20     0  03:03        0.20
  YS02001923           JUNCTION     0.06     0.08     7.34     0  03:02        0.08
  YS02001926           JUNCTION     0.13     0.17     7.61     0  03:01        0.17
  YS02001929           JUNCTION     0.06     0.08     7.77     0  03:01        0.08
  YS02001658           JUNCTION     0.21     0.40     7.54     0  04:05        0.39
  YS02001661           JUNCTION     0.14     0.19     7.59     0  02:50        0.19
  YS02001664           JUNCTION     0.06     0.11     8.03     0  02:49        0.11
  YS02001622           JUNCTION     0.42     0.63     7.53     0  04:04        0.63
  YS02001633           JUNCTION     0.84     1.20     7.65     0  03:50        1.10
  YS02001649           JUNCTION     0.90     1.14     7.53     0  04:02        1.14
  YS02001757           JUNCTION     1.02     1.30     7.56     0  03:34        1.28
  YS02001895           JUNCTION     0.24     0.39     7.13     0  02:58        0.39
  YS02001625           JUNCTION     0.70     0.95     7.55     0  03:48        0.93
  YS02163301           JUNCTION     0.78     1.15     7.67     0  03:50        1.03
  YS02163601           JUNCTION     0.89     1.23     7.63     0  03:50        1.17
  YS02164001           JUNCTION     0.83     1.18     7.64     0  03:52        1.11
  YS02001647           JUNCTION     0.69     0.94     7.55     0  03:46        0.93
  YSB1154              JUNCTION     0.24     0.37     9.43     0  02:19        0.37
  YSB6556              JUNCTION     0.13     0.26     9.43     0  02:18        0.26
  YSB1174              JUNCTION     0.19     0.32     9.43     0  02:19        0.32
  YSB1171              JUNCTION     0.39     0.52     9.43     0  02:18        0.52
  YS02006553           JUNCTION     0.67     0.84     7.12     0  02:59        0.84
  YS02006561           JUNCTION     0.13     0.21     6.87     0  03:00        0.21
  YS02006556           JUNCTION     0.64     0.81     7.12     0  03:00        0.81
  YS02006558           JUNCTION     0.69     0.85     7.12     0  03:00        0.85
  YS02001783           JUNCTION     0.23     0.38     6.52     0  03:00        0.38
  YS02001784           JUNCTION     0.26     0.40     6.47     0  02:59        0.40
  YS02001786           JUNCTION     0.22     0.34     6.37     0  03:00        0.34
  YS02001788           JUNCTION     0.16     0.26     6.23     0  03:00        0.26
  YS02001790           JUNCTION     0.19     0.31     5.96     0  03:00        0.31
  YS02001791           JUNCTION     0.13     0.20     5.67     0  03:00        0.20
  YS02001793           JUNCTION     0.08     0.63     5.47     0  03:28        0.53
  WS02004139           JUNCTION     0.60     0.72     5.63     0  04:59        0.72
  WSC                  OUTFALL      0.30     0.36     1.03     0  03:15        0.36
  3                    OUTFALL      0.07     0.20     6.20     0  03:00        0.20
  4                    OUTFALL      0.02     0.09     7.09     0  05:58        0.09
  5                    OUTFALL      0.00     0.00     5.00     0  00:00        0.00
  JK-storage           STORAGE      0.57     4.52     5.32     0  03:28        4.49
  CC-storage           STORAGE      0.28     0.50     7.50     0  04:05        0.50
  XR-storage           STORAGE      6.92     7.72     5.72     0  04:03        7.72
  
  
  *******************
  Node Inflow Summary
  *******************
  
  -------------------------------------------------------------------------------------------------
                                  Maximum  Maximum                  Lateral       Total        Flow
                                  Lateral    Total  Time of Max      Inflow      Inflow     Balance
                                   Inflow   Inflow   Occurrence      Volume      Volume       Error
  Node                 Type           LPS      LPS  days hr:min    10^6 ltr    10^6 ltr     Percent
  -------------------------------------------------------------------------------------------------
  WS02001211           JUNCTION      7.35   387.68     0  05:00       0.207         6.7       0.552
  WS02001212           JUNCTION      0.00   387.69     0  05:00           0        6.66       0.290
  WS02001213           JUNCTION      0.00   387.75     0  05:00           0        6.64       0.350
  WS02003069           JUNCTION      0.32   789.79     0  03:13     0.00902        13.9       0.201
  WS02003072           JUNCTION      0.00   789.20     0  03:13           0        13.9       0.252
  WS02003073           JUNCTION      1.82   790.62     0  03:14      0.0514        13.9       0.286
  WS02003060           JUNCTION     16.53   789.40     0  03:12       0.466        13.9       0.191
  WS02003066           JUNCTION      0.00   426.01     0  02:37           0        6.88       0.054
  WS02003059           JUNCTION      0.00   387.97     0  05:01           0        6.62       0.575
  WS02003067           JUNCTION      0.00   425.91     0  02:37           0        6.89       0.118
  WS02004401           JUNCTION      0.00   442.29     0  02:30           0        7.09       0.243
  WS02004402           JUNCTION      0.00   438.74     0  02:33           0        7.07       0.235
  WS02004403           JUNCTION      0.00   437.87     0  02:33           0        7.05       0.219
  WS02004404           JUNCTION      0.16   437.34     0  02:33     0.00457        7.04       0.170
  WS02004406           JUNCTION      0.00   437.02     0  02:33           0        7.01       0.417
  WS02004409           JUNCTION      0.00   436.64     0  02:34           0        6.98       0.178
  WS02004410           JUNCTION      0.00   432.96     0  02:35           0        6.97       0.209
  WS02004411           JUNCTION      0.00   430.01     0  02:35           0        6.95       0.222
  WS02004412           JUNCTION      0.00   427.98     0  02:36           0        6.94       0.248
  WS02004413           JUNCTION      0.00   426.51     0  02:36           0        6.92       0.378
  WS02004405           JUNCTION      0.04   437.13     0  02:33     0.00107        7.03       0.255
  WS02006109           JUNCTION      1.23   454.94     0  02:29      0.0347        7.15       0.231
  WS02006110           JUNCTION      0.00   455.36     0  02:29           0        7.14       0.198
  WS02006111           JUNCTION      0.00   467.49     0  02:29           0        7.12       0.034
  WS02006112           JUNCTION      8.02   461.88     0  02:30      0.0238        7.14       0.340
  WS02006113           JUNCTION      0.00   454.95     0  02:29           0        7.12       0.081
  WS02006115           JUNCTION      0.00   456.66     0  02:30           0        7.11       0.203
  WS02006116           JUNCTION      0.00   449.53     0  02:30           0         7.1       0.201
  WS02006230           JUNCTION     10.28   393.84     0  05:56        0.29        6.31       0.158
  WS02006231           JUNCTION      0.00   383.81     0  05:45           0        6.02       0.068
  WS02006232           JUNCTION      0.00   383.96     0  05:45           0        6.03       0.171
  WS02006234           JUNCTION      0.00   384.91     0  05:45           0        6.04       0.029
  WS02006235           JUNCTION      0.00   385.48     0  05:44           0        6.08       0.118
  WS02006238           JUNCTION      0.00   343.72     0  04:40           0        4.29       0.086
  WS02006240           JUNCTION      0.00   338.81     0  04:40           0        4.26       0.063
  WS02006242           JUNCTION      0.00   336.99     0  04:50           0        4.25       0.079
  WS02006243           JUNCTION      0.00   336.92     0  04:50           0        4.23      -0.345
  WS02006245           JUNCTION      0.00   340.71     0  05:41           0        4.23       0.100
  WS02006247           JUNCTION      0.00   346.97     0  05:41           0        4.23       0.010
  WS02006248           JUNCTION      0.00   352.65     0  05:41           0        4.23      -0.049
  WS02006249           JUNCTION      0.00   403.42     0  04:41           0        4.54       0.077
  WS02006239           JUNCTION      0.00   342.13     0  04:40           0        4.27       0.104
  WS02006251           JUNCTION      0.08   402.48     0  04:41     0.00217        4.57       0.001
  WS02006252           JUNCTION      0.00   400.00     0  04:30           0         4.4       0.002
  WS02006253           JUNCTION      1.22    35.35     0  02:19     0.00309       0.167      -0.037
  WS02006256           JUNCTION      0.00   599.99     0  03:00           0           4       0.063
  WS02004138           JUNCTION      0.00   380.00     0  04:50           0        6.53       0.069
  WS02004407           JUNCTION      0.00   436.79     0  02:34           0        6.98       0.077
  WS02006228           JUNCTION      0.00   453.84     0  02:29           0        7.13       0.142
  WS02006229           JUNCTION      0.00   454.66     0  02:28           0        7.14       0.134
  WS02006280           JUNCTION      0.00   183.55     0  02:20           0       0.839       0.008
  WS02006284           JUNCTION      0.10   183.55     0  02:20      0.0027        0.84       0.128
  WS02006287           JUNCTION      0.00   183.47     0  02:19           0       0.838       0.086
  WSF200               JUNCTION      0.00   425.98     0  02:37           0        6.88       0.049
  HS02004901           JUNCTION      9.93     9.93     0  02:11      0.0287      0.0288       6.492
  HS02004881           JUNCTION      4.02    34.42     0  02:19      0.0125       0.131       0.173
  HS02004876           JUNCTION      6.40    30.69     0  02:19       0.024       0.119       0.444
  HS02004870           JUNCTION      7.09    24.41     0  02:19      0.0237      0.0952       0.112
  HS02004862           JUNCTION      5.87    17.79     0  02:20      0.0293      0.0717       0.236
  HS02004856           JUNCTION      5.25    11.97     0  02:19      0.0178      0.0439       3.388
  HS02004852           JUNCTION      0.00     7.04     0  02:19           0      0.0261       0.193
  HS02004848           JUNCTION     11.67    11.67     0  02:23      0.0563      0.0563       0.078
  HS02004842           JUNCTION      0.00     5.01     0  02:33           0      0.0432      43.033
  HS02004837           JUNCTION     17.71    22.03     0  02:18        0.22        0.25       0.325
  HS02004830           JUNCTION      0.15    22.16     0  02:19     0.00423       0.241       0.514
  HS02004824           JUNCTION     13.17    35.16     0  02:23      0.0738       0.313       0.172
  HS02004817           JUNCTION      0.60    35.76     0  02:23      0.0169        0.33       5.323
  HS02004807           JUNCTION     13.33    47.90     0  02:21      0.0435       0.357       1.199
  HS02004802           JUNCTION      0.00    48.08     0  02:22           0       0.352       1.167
  HS02004799           JUNCTION     10.26   115.46     0  02:17      0.0352       0.431       0.529
  HS02004792           JUNCTION     45.89   105.41     0  02:17       0.155       0.396       0.104
  HS02004788           JUNCTION     15.60    61.35     0  02:18       0.096       0.243       0.162
  HS02004785           JUNCTION      0.15    46.15     0  02:17     0.00423       0.149       0.326
  HS02004777           JUNCTION      0.03    46.52     0  02:16    0.000846       0.149       3.603
  HS02004770           JUNCTION     38.85    47.67     0  02:13       0.123        0.15       2.114
  HS02004480           JUNCTION      0.00   136.20     0  02:18           0       0.502       0.143
  HS02004479           JUNCTION      0.00    21.12     0  02:20           0      0.0833       0.883
  HS02004478           JUNCTION      0.00   183.48     0  02:19           0       0.839       0.075
  YS02001745           JUNCTION     67.29    67.29     0  03:01       0.738       0.738       0.104
  YS02001748           JUNCTION      0.04   131.05     0  03:28     0.00127       0.765      -0.018
  YS02001751           JUNCTION      0.01   180.02     0  03:29     0.00031       0.765       0.728
  YS02001754           JUNCTION      0.26   117.90     0  03:23     0.00733       0.748       1.688
  YS02001762           JUNCTION      0.00   117.51     0  03:29           0       0.833       2.029
  YS02001765           JUNCTION      0.00    97.55     0  02:56           0       0.829       2.108
  YS02001767           JUNCTION      0.54   137.31     0  03:32      0.0151        0.84       3.037
  YS02001770           JUNCTION     86.51   145.28     0  03:30       0.867       0.936       2.309
  YS02001774           JUNCTION      0.00    90.55     0  03:32           0       0.154      13.371
  YS02001779           JUNCTION      0.01    84.30     0  03:32    0.000141      0.0664      12.786
  YS02001882           JUNCTION      0.00     3.52     0  02:08           0     0.00483      50.936
  YS02001884           JUNCTION      0.00    10.10     0  02:08           0      0.0194      32.581
  YS02001759           JUNCTION     84.46   184.56     0  03:07        0.81        1.61       1.184
  YS02001887           JUNCTION    111.00   111.00     0  02:47       0.971       0.981       0.724
  YS02001890           JUNCTION      0.00   110.36     0  02:49           0       0.958       0.814
  YS02001898           JUNCTION      0.00   109.89     0  02:52           0       0.947       0.224
  YS02001901           JUNCTION      0.00   109.76     0  02:52           0       0.946       0.575
  YS02001904           JUNCTION      0.00   109.38     0  02:53           0       0.945       0.535
  YS02001907           JUNCTION      0.00   199.93     0  03:02           0        2.02       1.095
  YS02001910           JUNCTION      0.00    91.20     0  03:01           0        1.08       0.932
  YS02001915           JUNCTION     60.35    90.96     0  03:01       0.633        1.09       0.408
  YS02001918           JUNCTION      0.00    30.87     0  03:03           0       0.457       0.233
  YS02001619           JUNCTION     58.67    64.65     0  03:48       0.624       0.624       0.313
  YS02001629           JUNCTION      0.00   125.67     0  03:48           0       0.605       1.538
  YS02001641           JUNCTION      0.00   137.53     0  03:20           0        1.27       1.144
  YS02001644           JUNCTION     63.90   194.00     0  03:02       0.708        1.96       0.932
  YS02001652           JUNCTION      0.00   103.25     0  03:06           0       0.714       1.729
  YS02001655           JUNCTION      0.15   164.76     0  03:42     0.00434       0.726       0.930
  YS02001920           JUNCTION      2.87    30.89     0  03:02      0.0809       0.459       0.431
  YS02001923           JUNCTION      0.04    28.02     0  03:02     0.00106       0.379       0.075
  YS02001926           JUNCTION      0.05    28.05     0  03:01     0.00147        0.38       0.541
  YS02001929           JUNCTION     28.02    28.02     0  03:01       0.378       0.378       0.073
  YS02001658           JUNCTION      0.00   122.59     0  03:41           0       0.721       0.042
  YS02001661           JUNCTION      0.00    78.70     0  02:49           0       0.709       0.096
  YS02001664           JUNCTION     78.70    78.70     0  02:49       0.709       0.709       0.023
  YS02001622           JUNCTION      0.00   101.33     0  03:48           0       0.623       1.069
  YS02001633           JUNCTION     64.95   136.58     0  03:02       0.729        1.31       1.708
  YS02001649           JUNCTION      0.00   283.59     0  03:05           0        2.61       1.115
  YS02001757           JUNCTION      0.00   482.84     0  03:02           0        4.87       1.691
  YS02001895           JUNCTION      0.00   110.03     0  02:51           0        0.95       0.382
  YS02001625           JUNCTION      0.00   146.00     0  03:48           0       0.623       3.407
  YS02163301           JUNCTION      0.00   109.22     0  03:50           0       0.597       2.713
  YS02163601           JUNCTION      0.11   139.81     0  03:32      0.0031        1.28       1.795
  YS02164001           JUNCTION      0.00   138.89     0  03:24           0        1.27       0.993
  YS02001647           JUNCTION      0.00   197.31     0  03:02           0        1.93       0.849
  YSB1154              JUNCTION     11.38    11.38     0  02:16      0.0427       0.044       3.391
  YSB6556              JUNCTION      0.00    11.39     0  02:18           0      0.0451       2.843
  YSB1174              JUNCTION     11.29    11.29     0  02:10      0.0311      0.0322       4.157
  YSB1171              JUNCTION      0.00    21.15     0  02:17           0      0.0828       8.267
  YS02006553           JUNCTION      0.00   200.29     0  03:02           0        2.01       0.711
  YS02006561           JUNCTION      0.00   293.07     0  03:00           0        2.84       0.022
  YS02006556           JUNCTION      0.00   200.57     0  03:03           0        2.01       0.513
  YS02006558           JUNCTION     94.15   293.08     0  02:59       0.885        2.87       0.156
  YS02001783           JUNCTION      0.00   293.07     0  03:00           0        2.84       0.052
  YS02001784           JUNCTION      1.06   294.13     0  02:59      0.0299        2.87       0.086
  YS02001786           JUNCTION      0.06   294.18     0  02:59     0.00159        2.87       0.083
  YS02001788           JUNCTION      0.07   294.24     0  03:00       0.002        2.87       0.048
  YS02001790           JUNCTION      0.15   294.40     0  03:00     0.00437        2.87       0.060
  YS02001791           JUNCTION      0.00   294.39     0  03:00           0        2.87       0.028
  YS02001793           JUNCTION      0.00   628.75     0  03:28           0        2.89       0.033
  WS02004139           JUNCTION      0.32   380.32     0  04:52     0.00905        6.53       0.579
  WSC                  OUTFALL       0.00   790.19     0  03:15           0        13.9       0.000
  3                    OUTFALL       0.00   483.56     0  03:00           0        2.18       0.000
  4                    OUTFALL       0.00    89.73     0  05:58           0       0.305       0.000
  5                    OUTFALL       0.00     0.00     0  00:00           0           0       0.000 ltr
  JK-storage           STORAGE       0.00   914.03     0  03:28           0        3.04     -24.329
  CC-storage           STORAGE       0.00   483.79     0  03:03           0        4.78      -0.275
  XR-storage           STORAGE     309.18   309.18     0  03:01        6.88        7.48      -0.000
  
  
  **********************
  Node Surcharge Summary
  **********************
  
  Surcharging occurs when water rises above the top of the highest conduit.
  ---------------------------------------------------------------------
                                               Max. Height   Min. Depth
                                   Hours       Above Crown    Below Rim
  Node                 Type      Surcharged         Meters       Meters
  ---------------------------------------------------------------------
  WS02006109           JUNCTION        1.07          0.059        1.761
  WS02006232           JUNCTION        1.30          0.032        1.448
  WS02006235           JUNCTION        0.38          0.007        1.283
  WS02006238           JUNCTION        0.79          0.027        1.403
  WS02006242           JUNCTION        0.55          0.021        0.799
  WS02006252           JUNCTION        2.15          0.185        0.915
  WS02006228           JUNCTION        0.90          0.066        2.134
  YS02001762           JUNCTION        2.84          0.231        0.919
  YS02001765           JUNCTION        1.35          0.172        0.928
  YS02001767           JUNCTION        0.89          0.218        0.812
  YS02001770           JUNCTION        0.10          0.010        0.910
  YS02001774           JUNCTION        2.41          0.110        0.940
  YS02001759           JUNCTION        3.11          0.261        0.949
  YS02001641           JUNCTION        1.78          0.196        0.904
  YS02001644           JUNCTION        1.95          0.171        0.749
  YS02001633           JUNCTION        1.08          0.179        0.881
  YS02001649           JUNCTION        2.92          0.144        0.906
  YS02001757           JUNCTION        4.22          0.300        0.910
  YS02163301           JUNCTION        0.39          0.153        0.877
  YS02163601           JUNCTION        2.88          0.231        0.849
  YS02164001           JUNCTION        1.22          0.182        0.918
  
  
  *********************
  Node Flooding Summary
  *********************
  
  Flooding refers to all water that overflows a node, whether it ponds or not.
  --------------------------------------------------------------------------
                                                             Total   Maximum
                                 Maximum   Time of Max       Flood    Ponded
                        Hours       Rate    Occurrence      Volume     Depth
  Node                 Flooded       LPS   days hr:min    10^6 ltr    Meters
  --------------------------------------------------------------------------
  XR-storage              0.49    110.07      0  04:03       0.095     0.000
  
  
  **********************
  Storage Volume Summary
  **********************
  
  --------------------------------------------------------------------------------------------------
                         Average     Avg  Evap Exfil       Maximum     Max    Time of Max    Maximum
                          Volume    Pcnt  Pcnt  Pcnt        Volume    Pcnt     Occurrence    Outflow
  Storage Unit           1000 m3    Full  Loss  Loss       1000 m3    Full    days hr:min        LPS
  --------------------------------------------------------------------------------------------------
  JK-storage               0.029      10     0     0         0.227      78       0  03:28     629.29
  CC-storage               0.786       5     0     0         1.381       9       0  04:05     400.00
  XR-storage               0.830      90     0     0         0.926     100       0  04:03     380.00
  
  
  ***********************
  Outfall Loading Summary
  ***********************
  
  -----------------------------------------------------------
                         Flow       Avg       Max       Total
                         Freq      Flow      Flow      Volume
  Outfall Node           Pcnt       LPS       LPS    10^6 ltr
  -----------------------------------------------------------
  WSC                   99.99    572.70    790.19      13.858
  3                     78.09    141.09    483.56       2.177
  4                     30.30     39.08     89.73       0.305
  5                      0.00      0.00      0.00       0.000
  -----------------------------------------------------------
  System                52.10    752.87   1085.43      16.340
  
  
  ********************
  Link Flow Summary
  ********************
  
  -----------------------------------------------------------------------------
                                 Maximum  Time of Max   Maximum    Max/    Max/
                                  |Flow|   Occurrence   |Veloc|    Full    Full
  Link                 Type          LPS  days hr:min     m/sec    Flow   Depth
  -----------------------------------------------------------------------------
  WS02003066WSF200     CONDUIT    425.98     0  02:37      2.66    0.07    0.20
  WS02006287WS02006284 CONDUIT    183.45     0  02:20      1.56    0.09    0.21
  WS02006284WS02006280 CONDUIT    183.55     0  02:20      1.80    0.08    0.19
  WS02006280WS02006229 CONDUIT    183.55     0  02:20      2.89    0.04    0.14
  WS02006229WS02006228 CONDUIT    453.84     0  02:29      0.90    1.50    1.00
  WS02006256WS02006235 CONDUIT    166.25     0  00:01      2.58    1.76    1.00
  WS02006253WS02006251 CONDUIT     46.79     0  02:26      0.47    0.14    0.89
  WS02006252WS02006251 CONDUIT    400.15     0  05:40      3.18    1.47    1.00
  WS02006251WS02006249 CONDUIT    403.42     0  04:41      1.17    1.16    0.86
  WS02006249WS02006248 CONDUIT    352.65     0  05:41      1.15    1.93    0.82
  WS02006248WS02006247 CONDUIT    346.97     0  05:41      1.11    0.76    0.86
  WS02006247WS02006245 CONDUIT    340.71     0  05:41      1.07    2.70    0.89
  WS02006245WS02006243 CONDUIT    336.92     0  04:50      1.12    1.00    0.90
  WS02006243WS02006242 CONDUIT    336.99     0  04:50      0.94    0.72    0.96
  WS02006242WS02006240 CONDUIT    338.81     0  04:40      0.91    1.35    0.98
  WS02006240WS02006239 CONDUIT    342.13     0  04:40      0.96    1.08    0.98
  WS02006239WS02006238 CONDUIT    343.72     0  04:40      0.91    1.10    1.00
  WS02006238WS02006235 CONDUIT    344.03     0  04:40      1.25    0.77    1.00
  WS02006235WS02006234 CONDUIT    384.91     0  05:45      1.04    4.06    0.97
  WS02006234WS02006232 CONDUIT    383.96     0  05:45      1.13    0.78    0.98
  WS02006232WS02006231 CONDUIT    383.81     0  05:45      1.05    0.80    0.91
  WS02006231WS02006230 CONDUIT    383.56     0  05:56      1.35    5.82    0.75
  WS02006230WS02006229 CONDUIT    393.84     0  05:57      1.02    8.76    1.00
  WS02006228WS02006109 CONDUIT    453.71     0  02:29      0.90    1.98    1.00
  WS02006116WS02004401 CONDUIT    442.29     0  02:30      0.73    0.61    0.76
  WS02006115WS02006116 CONDUIT    449.53     0  02:30      0.82    0.58    0.68
  WS02006113WS02006111 CONDUIT    467.49     0  02:29      2.32    0.56    0.42
  WS02006112WS02006115 CONDUIT    456.66     0  02:30      0.69    0.27    0.80
  WS02006111WS02006112 CONDUIT    456.52     0  02:30      1.32    0.22    0.66
  WS02006110WS02006113 CONDUIT    454.95     0  02:29      1.11    0.41    0.76
  WS02006109WS02006110 CONDUIT    455.36     0  02:29      0.92    0.88    0.97
  WS02004411WS02004412 CONDUIT    427.98     0  02:36      0.83    0.61    0.62
  WS02004401WS02004402 CONDUIT    438.74     0  02:33      0.77    0.53    0.79
  WS02004413WS02003067 CONDUIT    425.91     0  02:37      0.98    0.18    0.54
  WS02004412WS02004413 CONDUIT    426.51     0  02:36      0.71    0.29    0.71
  WS02004410WS02004411 CONDUIT    430.01     0  02:35      0.87    0.59    0.61
  WS02004409WS02004410 CONDUIT    432.96     0  02:35      0.91    0.56    0.59
  WS02004407WS02004409 CONDUIT    436.64     0  02:34      1.40    0.15    0.42
  WS02004406WS02004407 CONDUIT    436.79     0  02:34      0.92    0.20    0.58
  WS02004405WS02004406 CONDUIT    437.02     0  02:33      0.66    0.86    0.89
  WS02004404WS02004405 CONDUIT    437.09     0  02:33      0.84    4.28    0.89
  WS02004403WS02004404 CONDUIT    437.18     0  02:33      0.74    0.32    0.86
  WS02004402WS02004403 CONDUIT    437.87     0  02:33      0.75    0.63    0.81
  WS02004139WS02001211 CONDUIT    380.33     0  05:00      0.69    0.48    0.58
  WS02004138WS02004139 CONDUIT    380.00     0  04:52      2.94    0.08    0.43
  WS02003067WS02003066 CONDUIT    426.01     0  02:37      1.06    0.14    0.39
  WS02001213WS02003059 CONDUIT    387.97     0  05:01      0.66    0.64    0.74
  WS02001212WS02001213 CONDUIT    387.75     0  05:00      1.30    0.60    0.44
  WS02001211WS02001212 CONDUIT    387.69     0  05:00      0.76    0.30    0.63
  WS02003072WS02003073 CONDUIT    788.80     0  03:14      1.62    1.70    0.44
  WS02003069WS02003072 CONDUIT    789.20     0  03:13      1.53    0.38    0.46
  WS02003060WS02003069 CONDUIT    789.47     0  03:13      1.79    0.31    0.41
  WS02003059WS02003060 CONDUIT    388.40     0  05:01      0.89    0.25    0.62
  HS02004901HS02004770 CONDUIT      9.11     0  02:16      0.04    0.03    0.31
  HS02004876HS02004881 CONDUIT     30.74     0  02:20      0.52    0.33    0.09
  HS02004870HS02004876 CONDUIT     24.40     0  02:20      0.36    0.02    0.10
  HS02004842HS02004848 CONDUIT      5.01     0  02:33      0.03    0.00    0.27
  HS02004837HS02004842 CONDUIT      5.17     0  02:33      0.41    0.00    0.29
  HS02004830HS02004837 CONDUIT     22.01     0  02:19      0.43    0.02    0.07
  HS02004824HS02004830 CONDUIT     22.16     0  02:20      0.47    0.03    0.07
  HS02004817HS02004824 CONDUIT     35.16     0  02:23      0.17    0.02    0.39
  HS02004770HS02004777 CONDUIT     46.49     0  02:16      0.21    0.09    0.32
  HS02004799HS02004480 CONDUIT    115.29     0  02:17      0.56    0.15    0.30
  HS02004792HS02004799 CONDUIT    105.36     0  02:17      0.64    0.06    0.23
  HS02004788HS02004792 CONDUIT     61.30     0  02:18      0.80    0.04    0.11
  HS02004785HS02004788 CONDUIT     46.02     0  02:18      0.48    0.35    0.14
  HS02004777HS02004785 CONDUIT     46.00     0  02:17      0.25    0.06    0.26
  HS02004480HS02004478 CONDUIT    136.16     0  02:18      0.92    0.57    0.21
  HS02004479HS02004480 CONDUIT     21.29     0  02:21      0.16    0.02    0.29
  HS02004862HS02004870 CONDUIT     17.75     0  02:21      0.44    0.02    0.06
  HS02004848HS02004852 CONDUIT      7.04     0  02:19      0.29    0.01    0.03
  HS02004856HS02004862 CONDUIT     11.94     0  02:20      0.32    0.01    0.05
  HS02004852HS02004856 CONDUIT      7.01     0  02:21      0.11    0.01    0.09
  HS02004802HS02004478 CONDUIT     48.33     0  02:23      0.29    0.04    0.24
  HS02004478WS02006287 CONDUIT    183.47     0  02:19      1.25    0.05    0.16
  HS02004817HS02004807 CONDUIT     36.17     0  02:25      0.10    0.02    0.50
  HS02004807HS02004802 CONDUIT     48.08     0  02:22      0.24    0.09    0.29
  YS02001759YS02001757 CONDUIT    184.93     0  03:07      0.24    0.13    1.00
  YS02001762YS02001759 CONDUIT    116.25     0  03:26      0.18    0.13    1.00
  YS02001765YS02001762 CONDUIT    117.51     0  03:29      0.23    0.11    1.00
  YS02001770YS02001767 CONDUIT    136.77     0  03:32      0.31    0.54    1.00
  YS02001774YS02001770 CONDUIT     90.55     0  03:32      0.14    0.06    1.00
  YS02001779YS02001774 CONDUIT     84.29     0  03:32      0.12    0.04    0.93
  YS02001649YS02001757 CONDUIT    286.96     0  03:19      0.37    0.17    1.00
  YS02001767YS02001765 CONDUIT     97.55     0  02:56      0.25    0.12    1.00
  YS02006561YS02001783 CONDUIT    293.07     0  03:00      1.75    0.15    0.37
  YS02001783YS02001784 CONDUIT    293.07     0  02:59      1.21    0.40    0.49
  YS02001784YS02001785 CONDUIT    294.12     0  02:59      1.28    0.68    0.47
  YS02001788YS02001790 CONDUIT    294.25     0  03:00      1.84    0.22    0.35
  YS02001790YS02001791 CONDUIT    294.39     0  03:00      2.13    0.32    0.32
  YS02001791YS02001793 CONDUIT    297.18     0  03:02      4.30    0.13    0.51
  YS02001910YS02001907 CONDUIT     91.28     0  03:02      0.49    0.05    0.72
  YS02001786YS02001788 CONDUIT    294.17     0  03:00      1.71    0.57    0.37
  YS02001915YS02001910 CONDUIT     91.20     0  03:01      0.44    0.05    0.51
  YS02001918YS02001915 CONDUIT     30.85     0  03:03      0.44    0.02    0.25
  YS02001923YS02001920 CONDUIT     28.02     0  03:02      0.43    0.01    0.14
  YS02001926YS02001923 CONDUIT     27.98     0  03:02      0.47    0.04    0.13
  YS02001929YS02001926 CONDUIT     28.00     0  03:01      0.50    0.01    0.12
  YS02001920YS02001918 CONDUIT     30.87     0  03:03      0.45    0.03    0.14
  YS02001629YS02163301 CONDUIT    109.22     0  03:50      0.14    0.13    1.00
  YS02001619YS02001622 CONDUIT    101.33     0  03:48      0.63    0.15    0.62
  YS02001622YS02001625 CONDUIT     92.98     0  03:47      0.24    0.05    0.78
  YS02001625YS02001629 CONDUIT    125.67     0  03:48      0.23    0.06    0.77
  YS02163301YS02001633 CONDUIT     82.86     0  03:52      0.11    0.08    1.00
  YS02163601YS02164001 CONDUIT    138.89     0  03:24      0.18    0.12    1.00
  YS02164001YS02001641 CONDUIT    137.53     0  03:20      0.18    0.19    1.00
  YS02001641YS02001644 CONDUIT    133.47     0  03:28      0.17    0.43    1.00
  YS02001647YS02001649 CONDUIT    230.47     0  03:31      0.30    0.12    0.97
  YS02006553YS02006556 CONDUIT    200.57     0  03:03      0.30    0.17    0.80
  YS02006556YS02006558 CONDUIT    200.77     0  03:03      0.29    0.16    0.83
  YSB6556YSB1171       CONDUIT     11.52     0  02:21      0.05    0.01    0.56
  YS02001907YS02006553 CONDUIT    200.29     0  03:02      0.24    0.24    0.91
  YS02006558YS02006561 CONDUIT    293.07     0  03:00      2.25    0.65    0.47
  YS02001633YS02163601 CONDUIT    139.70     0  03:32      0.18    0.15    1.00
  YS02001644YS02001647 CONDUIT    197.31     0  03:02      0.27    0.12    0.97
  YS02001745YS02001748 CONDUIT     67.28     0  03:01      1.38    0.03    0.24
  YS02001748YS02001751 CONDUIT    180.01     0  03:29      1.06    0.09    0.55
  YS02001751YS02001754 CONDUIT     82.21     0  03:05      0.94    0.04    0.78
  YS02001754YS02001757 CONDUIT    153.72     0  03:27      0.33    0.06    0.98
  YS02001882YS02001884 CONDUIT      3.52     0  02:08      0.06    0.00    0.45
  YS02001884YS02001887 CONDUIT     10.10     0  02:08      0.06    0.01    0.54
  YS02001890YS02001895 CONDUIT    110.03     0  02:51      0.28    0.05    0.51
  YS02001895YS02001898 CONDUIT    109.89     0  02:52      0.47    0.19    0.37
  YS02001898YS02001901 CONDUIT    109.76     0  02:52      0.32    0.07    0.45
  YS02001901YS02001904 CONDUIT    109.38     0  02:53      0.28    0.17    0.50
  YS02001904YS02001907 CONDUIT    109.43     0  02:55      0.20    0.04    0.66
  YS02001887YS02001890 CONDUIT    110.36     0  02:49      0.23    0.19    0.59
  YS02001652YS02001649 CONDUIT    152.93     0  03:19      0.31    0.08    0.98
  YS02001655YS02001652 CONDUIT    103.25     0  03:06      1.01    0.05    0.80
  YS02001658YS02001655 CONDUIT    164.61     0  03:42      1.22    0.07    0.53
  YS02001661YS02001658 CONDUIT     78.70     0  02:50      1.42    0.03    0.24
  YS02001664YS02001661 CONDUIT     78.70     0  02:49      1.07    0.02    0.15
  YSB1154YSB6556       CONDUIT     11.39     0  02:18      0.19    0.02    0.45
  YSB1174YSB1171       CONDUIT     10.51     0  02:12      0.05    0.02    0.56
  YSB1171HS02004479    CONDUIT     21.12     0  02:20      0.54    0.01    0.43
  HS02004881HS02006253 CONDUIT     34.41     0  02:19      1.59    0.01    0.22
  YS02001793JiankangQianchi CONDUIT    914.03     0  03:28     12.99    0.07    0.82
  YS02001757CaochengTiaoxuchi CONDUIT    483.79     0  03:03      0.97    0.21    0.75
  WSF200WS02003060     CONDUIT    425.75     0  02:37      1.59    0.09    0.30
  1                    CONDUIT    790.19     0  03:15      3.12    0.28    0.36
  2                    CONDUIT     89.73     0  05:58      4.70    0.21    0.31
  3                    CONDUIT    483.56     0  03:00      9.75    0.77    0.66
  4                    CONDUIT      0.00     0  00:00      0.00    0.00    0.00
  CC-Pump-1            PUMP       200.00     0  03:40              1.00
  CC-Pump-2            PUMP       200.00     0  03:00              1.00
  JK-Pump-1            PUMP       299.99     0  03:00              1.00
  JK-Pump-2            PUMP       300.00     0  00:00              1.00
  XR-Pump-1            PUMP        95.00     0  00:00              1.00
  XR-Pump-2            PUMP        95.00     0  01:40              1.00
  XR-Pump-3            PUMP        95.00     0  00:00              1.00
  XR-Pump-4            PUMP        95.00     0  01:20              1.00
  
  
  ***************************
  Flow Classification Summary
  ***************************
  
  -------------------------------------------------------------------------------------
                      Adjusted    ---------- Fraction of Time in Flow Class ---------- 
                       /Actual         Up    Down  Sub   Sup   Up    Down  Norm  Inlet 
  Conduit               Length    Dry  Dry   Dry   Crit  Crit  Crit  Crit  Ltd   Ctrl  
  -------------------------------------------------------------------------------------
  WS02003066WSF200        1.00   0.06  0.00  0.00  0.00  0.94  0.00  0.00  0.75  0.00
  WS02006287WS02006284    1.00   0.04  0.02  0.00  0.69  0.25  0.00  0.00  0.78  0.00
  WS02006284WS02006280    1.00   0.05  0.00  0.00  0.00  0.00  0.00  0.95  0.00  0.00
  WS02006280WS02006229    1.00   0.05  0.00  0.00  0.00  0.00  0.00  0.95  0.00  0.00
  WS02006229WS02006228    1.00   0.00  0.00  0.00  0.99  0.00  0.00  0.01  0.00  0.00
  WS02006256WS02006235    1.00   0.00  0.00  0.00  1.00  0.00  0.00  0.00  0.00  0.00
  WS02006253WS02006251    1.00   0.03  0.01  0.00  0.95  0.00  0.00  0.00  0.00  0.00
  WS02006252WS02006251    1.00   0.09  0.00  0.00  0.00  0.00  0.91  0.00  0.00  0.00
  WS02006251WS02006249    1.00   0.00  0.00  0.00  1.00  0.00  0.00  0.00  0.31  0.00
  WS02006249WS02006248    1.00   0.00  0.02  0.00  0.86  0.00  0.12  0.00  0.00  0.00
  WS02006248WS02006247    1.00   0.02  0.00  0.00  0.97  0.00  0.00  0.00  0.20  0.00
  WS02006247WS02006245    1.00   0.02  0.00  0.00  0.98  0.00  0.00  0.00  0.00  0.00
  WS02006245WS02006243    1.00   0.01  0.00  0.00  0.94  0.00  0.00  0.04  0.02  0.00
  WS02006243WS02006242    1.00   0.01  0.00  0.00  0.99  0.00  0.00  0.00  0.27  0.00
  WS02006242WS02006240    1.00   0.00  0.00  0.00  1.00  0.00  0.00  0.00  0.00  0.00
  WS02006240WS02006239    1.00   0.00  0.00  0.00  0.95  0.00  0.00  0.05  0.01  0.00
  WS02006239WS02006238    1.00   0.00  0.00  0.00  1.00  0.00  0.00  0.00  0.00  0.00
  WS02006238WS02006235    1.00   0.00  0.00  0.00  1.00  0.00  0.00  0.00  0.00  0.00
  WS02006235WS02006234    1.00   0.00  0.00  0.00  0.95  0.00  0.05  0.00  0.00  0.00
  WS02006234WS02006232    1.00   0.00  0.00  0.00  1.00  0.00  0.00  0.00  0.10  0.00
  WS02006232WS02006231    1.00   0.00  0.00  0.00  0.99  0.00  0.00  0.00  0.00  0.00
  WS02006231WS02006230    1.00   0.00  0.00  0.00  0.64  0.00  0.35  0.00  0.00  0.00
  WS02006230WS02006229    1.00   0.00  0.00  0.00  0.98  0.00  0.00  0.02  0.01  0.00
  WS02006228WS02006109    1.00   0.00  0.00  0.00  1.00  0.00  0.00  0.00  0.00  0.00
  WS02006116WS02004401    1.00   0.03  0.00  0.00  0.97  0.00  0.00  0.00  0.00  0.00
  WS02006115WS02006116    1.00   0.03  0.00  0.00  0.97  0.00  0.00  0.01  0.00  0.00
  WS02006113WS02006111    1.00   0.02  0.00  0.00  0.00  0.98  0.00  0.00  0.13  0.00
  WS02006112WS02006115    1.00   0.02  0.00  0.00  0.97  0.00  0.00  0.00  0.00  0.00
  WS02006111WS02006112    1.00   0.02  0.00  0.00  0.97  0.00  0.00  0.00  0.98  0.00
  WS02006110WS02006113    1.00   0.01  0.01  0.00  0.98  0.00  0.00  0.00  0.00  0.00
  WS02006109WS02006110    1.00   0.00  0.01  0.00  0.98  0.00  0.01  0.00  0.00  0.00
  WS02004411WS02004412    1.00   0.04  0.00  0.00  0.96  0.00  0.00  0.00  0.00  0.00
  WS02004401WS02004402    1.00   0.03  0.00  0.00  0.97  0.00  0.00  0.00  0.00  0.00
  WS02004413WS02003067    1.00   0.04  0.02  0.00  0.00  0.00  0.94  0.00  0.00  0.00
  WS02004412WS02004413    1.00   0.04  0.00  0.00  0.96  0.00  0.00  0.00  0.03  0.00
  WS02004410WS02004411    1.00   0.04  0.00  0.00  0.96  0.00  0.00  0.00  0.04  0.00
  WS02004409WS02004410    1.00   0.04  0.00  0.00  0.96  0.00  0.00  0.00  0.04  0.00
  WS02004407WS02004409    1.00   0.04  0.00  0.00  0.96  0.00  0.00  0.00  0.89  0.00
  WS02004406WS02004407    1.00   0.00  0.04  0.00  0.96  0.00  0.00  0.00  0.00  0.00
  WS02004405WS02004406    1.00   0.00  0.00  0.00  1.00  0.00  0.00  0.00  0.00  0.00
  WS02004404WS02004405    1.00   0.00  0.00  0.00  1.00  0.00  0.00  0.00  0.00  0.00
  WS02004403WS02004404    1.00   0.00  0.03  0.00  0.97  0.00  0.00  0.00  0.01  0.00
  WS02004402WS02004403    1.00   0.03  0.00  0.00  0.97  0.00  0.00  0.00  0.00  0.00
  WS02004139WS02001211    1.00   0.00  0.00  0.00  0.99  0.00  0.00  0.00  0.00  0.00
  WS02004138WS02004139    1.00   0.00  0.00  0.00  0.99  0.01  0.00  0.00  1.00  0.00
  WS02003067WS02003066    1.00   0.06  0.00  0.00  0.94  0.00  0.00  0.00  0.00  0.00
  WS02001213WS02003059    1.00   0.00  0.00  0.00  0.99  0.00  0.00  0.00  0.00  0.00
  WS02001212WS02001213    1.00   0.00  0.00  0.00  0.87  0.00  0.12  0.00  0.00  0.00
  WS02001211WS02001212    1.00   0.00  0.00  0.00  1.00  0.00  0.00  0.00  0.00  0.00
  WS02003072WS02003073    1.00   0.00  0.00  0.00  0.00  0.00  0.00  1.00  0.00  0.00
  WS02003069WS02003072    1.00   0.00  0.00  0.00  0.99  0.01  0.00  0.00  0.27  0.00
  WS02003060WS02003069    1.00   0.00  0.00  0.00  0.99  0.01  0.00  0.00  0.14  0.00
  WS02003059WS02003060    1.00   0.00  0.00  0.00  1.00  0.00  0.00  0.00  0.01  0.00
  HS02004901HS02004770    1.00   0.05  0.00  0.00  0.95  0.00  0.00  0.00  0.02  0.00
  HS02004876HS02004881    1.00   0.02  0.00  0.00  0.98  0.00  0.00  0.00  0.00  0.00
  HS02004870HS02004876    1.00   0.01  0.00  0.00  0.99  0.00  0.00  0.00  0.95  0.00
  HS02004842HS02004848    1.00   0.00  0.05  0.00  0.95  0.00  0.00  0.00  0.69  0.00
  HS02004837HS02004842    1.00   0.00  0.00  0.00  0.99  0.01  0.00  0.00  0.11  0.00
  HS02004830HS02004837    1.00   0.00  0.00  0.00  1.00  0.00  0.00  0.00  0.99  0.00
  HS02004824HS02004830    1.00   0.00  0.00  0.00  1.00  0.00  0.00  0.00  0.00  0.00
  HS02004817HS02004824    1.00   0.00  0.00  0.00  1.00  0.00  0.00  0.00  1.00  0.00
  HS02004770HS02004777    1.00   0.00  0.05  0.00  0.95  0.00  0.00  0.00  0.07  0.00
  HS02004799HS02004480    1.00   0.00  0.03  0.00  0.94  0.00  0.03  0.00  0.00  0.00
  HS02004792HS02004799    1.00   0.00  0.00  0.00  0.98  0.02  0.00  0.00  0.98  0.00
  HS02004788HS02004792    1.00   0.00  0.00  0.00  0.99  0.01  0.00  0.00  0.98  0.00
  HS02004785HS02004788    1.00   0.00  0.00  0.00  1.00  0.00  0.00  0.00  0.00  0.00
  HS02004777HS02004785    1.00   0.00  0.00  0.00  1.00  0.00  0.00  0.00  0.21  0.00
  HS02004480HS02004478    1.00   0.05  0.00  0.00  0.73  0.00  0.00  0.22  0.00  0.00
  HS02004479HS02004480    1.00   0.03  0.00  0.00  0.97  0.00  0.00  0.00  0.16  0.00
  HS02004862HS02004870    1.00   0.00  0.00  0.00  1.00  0.00  0.00  0.00  0.06  0.00
  HS02004848HS02004852    1.00   0.05  0.00  0.00  0.95  0.00  0.00  0.00  0.70  0.00
  HS02004856HS02004862    1.00   0.00  0.07  0.00  0.93  0.00  0.00  0.00  0.74  0.00
  HS02004852HS02004856    1.00   0.05  0.01  0.00  0.95  0.00  0.00  0.00  0.83  0.00
  HS02004802HS02004478    1.00   0.05  0.01  0.00  0.95  0.00  0.00  0.00  0.01  0.00
  HS02004478WS02006287    1.00   0.06  0.00  0.00  0.88  0.06  0.00  0.00  0.80  0.00
  HS02004817HS02004807    1.00   0.00  0.05  0.00  0.95  0.00  0.00  0.00  0.00  0.00
  HS02004807HS02004802    1.00   0.05  0.00  0.00  0.95  0.00  0.00  0.00  0.01  0.00
  YS02001759YS02001757    1.00   0.00  0.00  0.00  1.00  0.00  0.00  0.00  0.17  0.00
  YS02001762YS02001759    1.00   0.00  0.00  0.00  1.00  0.00  0.00  0.00  0.04  0.00
  YS02001765YS02001762    1.00   0.00  0.00  0.00  1.00  0.00  0.00  0.00  0.22  0.00
  YS02001770YS02001767    1.00   0.00  0.00  0.00  1.00  0.00  0.00  0.00  0.00  0.00
  YS02001774YS02001770    1.00   0.00  0.05  0.00  0.94  0.00  0.00  0.00  0.07  0.00
  YS02001779YS02001774    1.00   0.00  0.00  0.00  1.00  0.00  0.00  0.00  0.27  0.00
  YS02001649YS02001757    1.00   0.00  0.00  0.00  1.00  0.00  0.00  0.00  0.19  0.00
  YS02001767YS02001765    1.00   0.00  0.00  0.00  1.00  0.00  0.00  0.00  0.01  0.00
  YS02006561YS02001783    1.00   0.07  0.00  0.00  0.00  0.93  0.00  0.00  0.73  0.00
  YS02001783YS02001784    1.00   0.00  0.07  0.00  0.93  0.00  0.00  0.00  0.00  0.00
  YS02001784YS02001785    1.00   0.00  0.00  0.00  1.00  0.00  0.00  0.00  0.25  0.00
  YS02001788YS02001790    1.00   0.00  0.00  0.00  0.08  0.92  0.00  0.00  0.79  0.00
  YS02001790YS02001791    1.00   0.00  0.00  0.00  0.02  0.98  0.00  0.00  0.52  0.00
  YS02001791YS02001793    1.00   0.00  0.00  0.00  0.01  0.99  0.00  0.00  0.01  0.00
  YS02001910YS02001907    1.00   0.00  0.00  0.00  0.97  0.00  0.00  0.03  0.13  0.00
  YS02001786YS02001788    1.00   0.00  0.00  0.00  0.08  0.92  0.00  0.00  0.00  0.00
  YS02001915YS02001910    1.00   0.00  0.00  0.00  0.99  0.01  0.00  0.00  0.24  0.00
  YS02001918YS02001915    1.00   0.00  0.01  0.00  0.98  0.02  0.00  0.00  0.81  0.00
  YS02001923YS02001920    1.00   0.00  0.00  0.00  1.00  0.00  0.00  0.00  1.00  0.00
  YS02001926YS02001923    1.00   0.00  0.04  0.00  0.00  0.00  0.96  0.00  0.00  0.00
  YS02001929YS02001926    1.00   0.00  0.05  0.00  0.95  0.00  0.00  0.00  0.87  0.00
  YS02001920YS02001918    1.00   0.00  0.01  0.00  0.99  0.00  0.00  0.00  0.00  0.00
  YS02001629YS02163301    1.00   0.06  0.00  0.00  0.93  0.00  0.00  0.00  0.00  0.00
  YS02001619YS02001622    1.00   0.05  0.00  0.00  0.95  0.00  0.00  0.00  0.00  0.00
  YS02001622YS02001625    1.00   0.05  0.00  0.00  0.95  0.00  0.00  0.00  0.13  0.00
  YS02001625YS02001629    1.00   0.05  0.03  0.00  0.90  0.00  0.02  0.00  0.00  0.00
  YS02163301YS02001633    1.00   0.00  0.06  0.00  0.94  0.00  0.00  0.00  0.00  0.00
  YS02163601YS02164001    1.00   0.00  0.04  0.00  0.96  0.00  0.00  0.00  0.00  0.00
  YS02164001YS02001641    1.00   0.01  0.03  0.00  0.96  0.00  0.00  0.00  0.07  0.00
  YS02001641YS02001644    1.00   0.00  0.01  0.00  0.99  0.00  0.00  0.00  0.00  0.00
  YS02001647YS02001649    1.00   0.00  0.07  0.00  0.93  0.00  0.00  0.00  0.01  0.00
  YS02006553YS02006556    1.00   0.02  0.00  0.00  0.98  0.00  0.00  0.00  0.03  0.00
  YS02006556YS02006558    1.00   0.00  0.00  0.00  1.00  0.00  0.00  0.00  0.00  0.00
  YSB6556YSB1171          1.00   0.03  0.02  0.00  0.95  0.00  0.00  0.00  0.00  0.00
  YS02001907YS02006553    1.00   0.00  0.02  0.00  0.97  0.00  0.00  0.00  0.00  0.00
  YS02006558YS02006561    1.00   0.07  0.00  0.00  0.00  0.93  0.00  0.00  0.72  0.00
  YS02001633YS02163601    1.00   0.00  0.01  0.00  0.99  0.00  0.00  0.00  0.20  0.00
  YS02001644YS02001647    1.00   0.00  0.07  0.00  0.93  0.00  0.00  0.00  0.00  0.00
  YS02001745YS02001748    1.00   0.00  0.00  0.00  0.69  0.06  0.00  0.25  0.57  0.00
  YS02001748YS02001751    1.00   0.00  0.00  0.00  0.97  0.03  0.00  0.00  0.27  0.00
  YS02001751YS02001754    1.00   0.00  0.00  0.00  0.92  0.00  0.00  0.08  0.02  0.00
  YS02001754YS02001757    1.00   0.00  0.00  0.00  0.99  0.01  0.00  0.00  0.26  0.00
  YS02001882YS02001884    1.00   0.06  0.00  0.00  0.94  0.00  0.00  0.00  0.00  0.00
  YS02001884YS02001887    1.00   0.03  0.01  0.00  0.96  0.00  0.00  0.00  0.00  0.00
  YS02001890YS02001895    1.00   0.00  0.06  0.00  0.93  0.00  0.00  0.00  0.00  0.00
  YS02001895YS02001898    1.00   0.07  0.00  0.00  0.93  0.00  0.01  0.00  0.00  0.00
  YS02001898YS02001901    1.00   0.06  0.00  0.00  0.93  0.00  0.00  0.00  0.02  0.00
  YS02001901YS02001904    1.00   0.06  0.00  0.00  0.94  0.00  0.00  0.00  0.00  0.00
  YS02001904YS02001907    1.00   0.00  0.06  0.00  0.94  0.00  0.00  0.00  0.00  0.00
  YS02001887YS02001890    1.00   0.00  0.00  0.00  0.97  0.00  0.03  0.00  0.00  0.00
  YS02001652YS02001649    1.00   0.00  0.00  0.00  1.00  0.00  0.00  0.00  0.26  0.00
  YS02001655YS02001652    1.00   0.00  0.00  0.00  0.92  0.00  0.00  0.08  0.02  0.00
  YS02001658YS02001655    1.00   0.00  0.06  0.00  0.91  0.03  0.00  0.00  0.21  0.00
  YS02001661YS02001658    1.00   0.06  0.00  0.00  0.73  0.21  0.00  0.00  0.73  0.00
  YS02001664YS02001661    1.00   0.05  0.00  0.00  0.78  0.17  0.00  0.00  0.86  0.00
  YSB1154YSB6556          1.00   0.05  0.00  0.00  0.95  0.00  0.00  0.00  0.02  0.00
  YSB1174YSB1171          1.00   0.03  0.01  0.00  0.96  0.00  0.00  0.00  0.00  0.00
  YSB1171HS02004479       1.00   0.03  0.00  0.00  0.97  0.00  0.00  0.00  0.13  0.00
  HS02004881HS02006253    1.00   0.03  0.00  0.00  0.72  0.02  0.00  0.23  0.55  0.00
  YS02001793JiankangQianchi    1.00   0.00  0.00  0.00  0.25  0.74  0.00  0.00  0.21  0.00
  YS02001757CaochengTiaoxuchi    1.00   0.00  0.09  0.00  0.91  0.00  0.00  0.00  0.00  0.00
  WSF200WS02003060        1.00   0.00  0.06  0.00  0.74  0.20  0.00  0.00  0.20  0.00
  1                       1.00   0.00  0.00  0.00  0.00  1.00  0.00  0.00  0.37  0.00
  2                       1.00   0.69  0.00  0.00  0.00  0.31  0.00  0.00  0.08  0.00
  3                       1.00   0.22  0.00  0.00  0.00  0.78  0.00  0.00  0.35  0.00
  4                       1.00   1.00  0.00  0.00  0.00  0.00  0.00  0.00  0.00  0.00
  
  
  *************************
  Conduit Surcharge Summary
  *************************
  
  ----------------------------------------------------------------------------
                                                           Hours        Hours 
                         --------- Hours Full --------   Above Full   Capacity
  Conduit                Both Ends  Upstream  Dnstream   Normal Flow   Limited
  ----------------------------------------------------------------------------
  WS02006229WS02006228        0.90      1.26      0.90      4.34         0.90
  WS02006256WS02006235        5.67      5.67      7.25      2.50         0.01
  WS02006252WS02006251        1.19      1.19      2.15      1.89         0.01
  WS02006251WS02006249        0.01      0.01      0.01      1.14         0.01
  WS02006249WS02006248        0.01      0.01      0.01      3.96         0.01
  WS02006247WS02006245        0.01      0.01      0.01      4.38         0.01
  WS02006243WS02006242        0.01      0.01      0.55      0.01         0.01
  WS02006242WS02006240        0.01      0.01      1.03      2.16         0.01
  WS02006240WS02006239        0.01      0.01      0.01      0.29         0.01
  WS02006239WS02006238        0.73      0.73      0.79      0.40         0.11
  WS02006238WS02006235        0.60      0.60      1.25      0.01         0.01
  WS02006235WS02006234        0.01      0.01      0.38      5.66         0.01
  WS02006234WS02006232        0.01      0.01      1.30      0.01         0.01
  WS02006232WS02006231        0.01      0.01      1.30      0.01         0.01
  WS02006231WS02006230        0.01      0.01      0.01      5.72         0.01
  WS02006230WS02006229        2.72      3.75      2.72      5.81         2.72
  WS02006228WS02006109        1.07      1.97      1.07      5.34         1.07
  WS02006111WS02006112        0.01      0.01      4.69      0.01         0.01
  WS02006110WS02006113        0.01      0.01      1.64      0.01         0.01
  WS02006109WS02006110        0.01      0.01      1.97      0.01         0.01
  WS02004404WS02004405        0.01      0.01      0.01      5.59         0.01
  WS02003072WS02003073        0.01      0.01      0.01      5.20         0.01
  YS02001759YS02001757        3.11      3.11      4.22      0.01         0.01
  YS02001762YS02001759        2.83      2.83      3.11      0.01         0.01
  YS02001765YS02001762        1.35      1.35      2.83      0.01         0.01
  YS02001770YS02001767        0.79      0.82      0.89      0.01         0.14
  YS02001774YS02001770        0.10      0.10      2.41      0.01         0.01
  YS02001779YS02001774        0.01      0.01      2.41      0.01         0.01
  YS02001649YS02001757        2.92      2.92      4.22      0.01         0.01
  YS02001767YS02001765        0.89      0.89      1.35      0.01         0.01
  YS02001629YS02163301        0.01      0.01      0.39      0.01         0.01
  YS02163301YS02001633        0.39      0.39      1.33      0.01         0.01
  YS02163601YS02164001        1.22      1.22      2.88      0.01         0.01
  YS02164001YS02001641        1.22      1.22      1.78      0.01         0.01
  YS02001641YS02001644        1.77      1.78      1.95      0.01         0.21
  YS02001647YS02001649        0.01      0.01      2.92      0.01         0.01
  YS02001633YS02163601        1.08      1.08      2.88      0.01         0.01
  YS02001644YS02001647        0.01      0.01      1.95      0.01         0.01
  YS02001754YS02001757        0.01      0.01      4.22      0.01         0.01
  YS02001652YS02001649        0.01      0.01      2.92      0.01         0.01
  YS02001793JiankangQianchi        0.01      0.01      1.26      0.01         0.01
  YS02001757CaochengTiaoxuchi        0.01      0.01      4.22      0.01         0.01
  
  
  ***************
  Pumping Summary
  ***************
  
  ---------------------------------------------------------------------------------------------------------
                                                  Min       Avg       Max     Total     Power    % Time Off
                        Percent   Number of      Flow      Flow      Flow    Volume     Usage    Pump Curve
  Pump                 Utilized   Start-Ups       LPS       LPS       LPS  10^6 ltr     Kw-hr    Low   High
  ---------------------------------------------------------------------------------------------------------
  CC-Pump-1               55.41           6      0.00    130.85    200.00     2.080      7.65    0.0   34.0
  CC-Pump-2               57.54           5      0.00    142.92    200.00     2.320      8.69    0.0   42.3
  JK-Pump-1               70.20           5      0.00    109.02    299.99     1.698     31.90    0.0    0.0
  JK-Pump-2               85.08           7      0.00    130.72    300.00     2.300     39.74    0.0    0.0
  XR-Pump-1               99.99           4      0.00     79.52     95.00     2.223     16.39    0.0    0.0
  XR-Pump-2               87.21           9      0.00     62.16     95.00     1.510     10.91    0.0    0.0
  XR-Pump-3               72.33           8      0.00     65.55     95.00     1.368     10.90    0.0    0.0
  XR-Pump-4               76.55           8      0.00     63.62     95.00     1.425     10.23    0.0    0.0
  

  Analysis begun on:  Tue Dec 21 14:42:37 2021
  Analysis ended on:  Tue Dec 21 14:42:39 2021
  Total elapsed time: 00:00:02