
  EPA STORM WATER MANAGEMENT MODEL - VERSION 5.1 (Build 5.3.0.dev0)
  --------------------------------------------------------------

  WARNING 04: minimum elevation drop used for Conduit WS02004404WS02004405
  WARNING 03: negative offset ignored for Link YS02001904YS02001907
  
  *********************************************************
  NOTE: The summary statistics displayed in this report are
  based on results found at every computational time step,  
  not just on results from each reporting time step.
  *********************************************************
  
  ****************
  Analysis Options
  ****************
  Flow Units ............... LPS
  Process Models:
    Rainfall/Runoff ........ YES
    RDII ................... NO
    Snowmelt ............... NO
    Groundwater ............ NO
    Flow Routing ........... YES
    Ponding Allowed ........ NO
    Water Quality .......... NO
  Infiltration Method ...... HORTON
  Flow Routing Method ...... DYNWAVE
  Surcharge Method ......... EXTRAN
  Starting Date ............ 08/28/2015 08:00:00
  Ending Date .............. 08/28/2015 15:50:00
  Antecedent Dry Days ...... 8.0
  Report Time Step ......... 00:01:00
  Wet Time Step ............ 00:01:00
  Dry Time Step ............ 00:01:00
  Routing Time Step ........ 5.00 sec
  Variable Time Step ....... YES
  Maximum Trials ........... 8
  Number of Threads ........ 4
  Head Tolerance ........... 0.001500 m
  
  
  **************************        Volume         Depth
  Runoff Quantity Continuity     hectare-m            mm
  **************************     ---------       -------
  Total Precipitation ......         1.154         2.526
  Evaporation Loss .........         0.000         0.000
  Infiltration Loss ........         0.276         0.603
  Surface Runoff ...........         0.216         0.473
  Final Storage ............         0.662         1.450
  Continuity Error (%) .....        -0.011
  
  
  **************************        Volume        Volume
  Flow Routing Continuity        hectare-m      10^6 ltr
  **************************     ---------     ---------
  Dry Weather Inflow .......         0.616         6.165
  Wet Weather Inflow .......         0.216         2.156
  Groundwater Inflow .......         0.000         0.000
  RDII Inflow ..............         0.000         0.000
  External Inflow ..........         0.102         1.024
  External Outflow .........         0.982         9.817
  Flooding Loss ............         0.000         0.000
  Evaporation Loss .........         0.000         0.000
  Exfiltration Loss ........         0.000         0.000
  Initial Stored Volume ....         0.076         0.761
  Final Stored Volume ......         0.117         1.172
  Continuity Error (%) .....        -8.743
  
  
  *************************
  Highest Continuity Errors
  *************************
  Node JK-storage (-57.33%)
  Node HS02004842 (56.15%)
  Node YS02001884 (46.46%)
  Node YS02001774 (28.39%)
  Node HS02004901 (21.26%)
  
  
  ***************************
  Time-Step Critical Elements
  ***************************
  Link WS02006252WS02006251 (79.11%)
  Link WS02006280WS02006229 (6.64%)
  Link 3 (3.91%)
  Link WS02006238WS02006235 (2.60%)
  Link YS02001793JiankangQianchi (1.70%)
  
  
  ********************************
  Highest Flow Instability Indexes
  ********************************
  Link WS02006113WS02006111 (48)
  Link WS02006111WS02006112 (12)
  Link YS02001754YS02001757 (4)
  Link YS02001767YS02001765 (3)
  Link YS02001649YS02001757 (3)
  
  
  *************************
  Routing Time Step Summary
  *************************
  Minimum Time Step           :     0.50 sec
  Average Time Step           :     1.52 sec
  Maximum Time Step           :     5.00 sec
  Percent in Steady State     :    -0.00
  Average Iterations per Step :     2.01
  Percent Not Converging      :     0.02
  
  
  ***************************
  Subcatchment Runoff Summary
  ***************************
  
  ------------------------------------------------------------------------------------------------------------------------------
                            Total      Total      Total      Total     Imperv       Perv      Total       Total     Peak  Runoff
                           Precip      Runon       Evap      Infil     Runoff     Runoff     Runoff      Runoff   Runoff   Coeff
  Subcatchment                 mm         mm         mm         mm         mm         mm         mm    10^6 ltr      LPS
  ------------------------------------------------------------------------------------------------------------------------------
  sub0                       2.53       0.00       0.00       0.18       1.08       0.00       1.08        0.00     0.20   0.429
  sub1                       2.53       0.00       0.00       0.28       1.00       0.00       1.00        0.01     1.14   0.396
  sub2                       2.53       0.00       0.00       0.93       0.69       0.00       0.69        0.01     1.02   0.275
  sub3                       2.53       0.00       0.00       0.93       0.67       0.00       0.67        0.02     2.12   0.265
  sub4                       2.53       0.00       0.00       0.28       0.91       0.00       0.91        0.02     2.39   0.358
  sub5                       2.53       0.00       0.00       0.18       1.04       0.00       1.04        0.01     2.03   0.413
  sub7                       2.53       0.00       0.00       0.23       1.05       0.00       1.05        0.00     0.69   0.414
  sub8                       2.53       0.00       0.00       0.23       1.04       0.00       1.04        0.01     1.24   0.411
  sub9                       2.53       0.00       0.00       0.23       1.04       0.00       1.04        0.00     0.92   0.410
  sub10                      2.53       0.00       0.00       0.20       1.04       0.00       1.04        0.01     2.01   0.411
  sub11                      2.53       0.00       0.00       0.20       1.05       0.00       1.05        0.01     2.32   0.416
  sub12                      2.53       0.00       0.00       0.33       1.01       0.00       1.01        0.01     1.91   0.400
  sub14                      2.53       0.00       0.00       0.23       1.03       0.00       1.03        0.01     1.80   0.410
  sub15                      2.53       0.00       0.00       0.76       0.79       0.00       0.79        0.01     2.46   0.314
  sub16                      2.53       0.00       0.00       0.83       0.77       0.00       0.77        0.01     1.69   0.307
  sub17                      2.53       0.00       0.00       0.81       0.78       0.00       0.78        0.01     1.37   0.311
  sub22                      2.53       0.00       0.00       1.09       0.65       0.00       0.65        0.04     7.93   0.258
  sub23                      2.53       0.00       0.00       0.93       0.72       0.00       0.72        0.03     6.73   0.286
  sub60                      2.53       0.00       0.00       0.30       0.50       0.00       0.50        0.15    11.25   0.196
  sub61                      2.53       0.00       0.00       0.43       0.57       0.00       0.57        0.18    14.72   0.226
  sub62                      2.53       0.00       0.00       0.20       0.60       0.00       0.60        0.18    14.89   0.237
  sub63                      2.53       0.00       0.00       0.73       0.52       0.00       0.52        0.16    13.91   0.208
  sub64                      2.53       0.00       0.00       0.38       0.47       0.00       0.47        0.14    10.65   0.187
  sub65                      2.53       0.00       0.00       0.33       0.47       0.00       0.47        0.15    10.77   0.188
  sub66                      2.53       0.00       0.00       0.73       0.42       0.00       0.42        0.13     9.91   0.167
  sub67                      2.53       0.00       0.00       0.20       0.71       0.00       0.71        0.22    19.65   0.280
  sub68                      2.53       0.00       0.00       0.35       0.62       0.00       0.62        0.19    16.41   0.245
  sub69                      2.53       0.00       0.00       0.38       0.72       0.00       0.72        0.17    16.61   0.286
  sub70                      2.53       0.74       0.00       1.11       0.71       0.00       0.71        0.16    10.59   0.218
  sub71                      2.53       0.00       0.00       0.20       0.56       0.00       0.56        0.13    10.23   0.221
  sub72                      2.53       0.00       0.00       0.18       0.34       0.00       0.34        0.07     4.45   0.135
  sub73                      2.53       0.69       0.00       1.09       0.64       0.00       0.64        0.15     9.25   0.199
  sub74                      2.53       0.00       0.00       1.89       0.22       0.00       0.22        0.09     9.31   0.089
  
  
  ******************
  Node Depth Summary
  ******************
  
  ---------------------------------------------------------------------------------
                                 Average  Maximum  Maximum  Time of Max    Reported
                                   Depth    Depth      HGL   Occurrence   Max Depth
  Node                 Type       Meters   Meters   Meters  days hr:min      Meters
  ---------------------------------------------------------------------------------
  WS02001211           JUNCTION     0.64     0.76     5.60     0  07:50        0.76
  WS02001212           JUNCTION     0.36     0.46     5.52     0  07:50        0.46
  WS02001213           JUNCTION     0.57     0.68     5.44     0  07:49        0.68
  WS02003069           JUNCTION     0.35     0.46     5.04     0  04:04        0.46
  WS02003072           JUNCTION     0.42     0.53     4.90     0  04:04        0.53
  WS02003073           JUNCTION     0.24     0.32     4.38     0  04:05        0.32
  WS02003060           JUNCTION     0.31     0.41     5.34     0  04:03        0.41
  WS02003066           JUNCTION     0.16     0.22     5.78     0  04:08        0.22
  WS02003059           JUNCTION     0.62     0.73     5.41     0  04:02        0.73
  WS02003067           JUNCTION     0.43     0.56     5.88     0  04:08        0.56
  WS02004401           JUNCTION     0.49     0.63     6.63     0  04:03        0.63
  WS02004402           JUNCTION     0.52     0.66     6.62     0  04:03        0.66
  WS02004403           JUNCTION     0.55     0.69     6.62     0  04:03        0.69
  WS02004404           JUNCTION     0.62     0.77     6.62     0  04:04        0.77
  WS02004406           JUNCTION     0.64     0.78     6.61     0  04:04        0.78
  WS02004409           JUNCTION     0.30     0.45     6.22     0  04:07        0.45
  WS02004410           JUNCTION     0.33     0.47     6.19     0  04:07        0.47
  WS02004411           JUNCTION     0.35     0.49     6.17     0  04:08        0.49
  WS02004412           JUNCTION     0.38     0.51     6.15     0  04:08        0.51
  WS02004413           JUNCTION     0.53     0.68     6.15     0  04:08        0.68
  WS02004405           JUNCTION     0.62     0.76     6.61     0  04:04        0.76
  WS02006109           JUNCTION     0.55     0.69     7.31     0  03:58        0.69
  WS02006110           JUNCTION     0.57     0.70     7.29     0  03:58        0.70
  WS02006111           JUNCTION     0.14     0.20     6.91     0  03:58        0.20
  WS02006112           JUNCTION     0.63     0.79     6.67     0  04:02        0.79
  WS02006113           JUNCTION     0.21     0.31     7.20     0  03:58        0.31
  WS02006115           JUNCTION     0.37     0.51     6.65     0  04:03        0.51
  WS02006116           JUNCTION     0.46     0.60     6.64     0  04:03        0.60
  WS02006230           JUNCTION     0.45     0.62     7.37     0  03:57        0.62
  WS02006231           JUNCTION     0.29     0.43     7.55     0  03:56        0.43
  WS02006232           JUNCTION     0.41     0.56     7.60     0  03:56        0.56
  WS02006234           JUNCTION     0.30     0.47     7.62     0  03:56        0.47
  WS02006235           JUNCTION     0.33     0.50     7.66     0  03:56        0.50
  WS02006238           JUNCTION     0.35     0.52     7.66     0  03:56        0.52
  WS02006240           JUNCTION     0.24     0.40     7.69     0  03:55        0.40
  WS02006242           JUNCTION     0.29     0.45     7.72     0  03:55        0.45
  WS02006243           JUNCTION     0.17     0.34     7.76     0  04:48        0.34
  WS02006245           JUNCTION     0.19     0.36     7.85     0  04:47        0.36
  WS02006247           JUNCTION     0.21     0.40     7.90     0  04:47        0.39
  WS02006248           JUNCTION     0.17     0.36     7.95     0  04:47        0.36
  WS02006249           JUNCTION     0.21     0.41     8.01     0  04:46        0.41
  WS02006239           JUNCTION     0.30     0.47     7.68     0  03:56        0.47
  WS02006251           JUNCTION     0.20     0.42     8.09     0  04:46        0.39
  WS02006252           JUNCTION     0.19     0.45     8.69     0  04:46        0.39
  WS02006253           JUNCTION     0.22     0.46     8.10     0  04:47        0.46
  WS02006256           JUNCTION     0.66     1.10     8.04     0  00:35        1.10
  WS02004138           JUNCTION     0.15     0.20     7.45     0  00:00        0.19
  WS02004407           JUNCTION     0.14     0.20     6.52     0  04:04        0.20
  WS02006228           JUNCTION     0.52     0.68     7.33     0  03:58        0.68
  WS02006229           JUNCTION     0.48     0.64     7.34     0  03:57        0.64
  WS02006280           JUNCTION     0.04     0.06     8.34     0  02:43        0.06
  WS02006284           JUNCTION     0.32     0.37     8.77     0  02:43        0.37
  WS02006287           JUNCTION     0.05     0.09     9.05     0  02:42        0.09
  WSF200               JUNCTION     0.13     0.19     5.43     0  04:09        0.19
  HS02004901           JUNCTION     0.09     0.13     9.95     0  02:43        0.13
  HS02004881           JUNCTION     0.00     0.01     9.04     0  02:39        0.01
  HS02004876           JUNCTION     0.02     0.05     9.08     0  02:40        0.05
  HS02004870           JUNCTION     0.00     0.01     9.30     0  02:37        0.01
  HS02004862           JUNCTION     0.01     0.01     9.40     0  02:39        0.01
  HS02004856           JUNCTION     0.06     0.08     9.51     0  02:37        0.08
  HS02004852           JUNCTION     0.00     0.01     9.52     0  02:39        0.01
  HS02004848           JUNCTION     0.00     0.01     9.61     0  02:33        0.01
  HS02004842           JUNCTION     0.32     0.34     9.61     0  02:33        0.34
  HS02004837           JUNCTION     0.02     0.03     9.61     0  02:33        0.03
  HS02004830           JUNCTION     0.03     0.04     9.51     0  02:34        0.04
  HS02004824           JUNCTION     0.01     0.02     9.42     0  02:37        0.02
  HS02004817           JUNCTION     0.40     0.44     9.29     0  02:42        0.44
  HS02004807           JUNCTION     0.09     0.12     9.29     0  02:42        0.12
  HS02004802           JUNCTION     0.13     0.16     9.29     0  02:42        0.16
  HS02004799           JUNCTION     0.07     0.12     9.33     0  02:41        0.12
  HS02004792           JUNCTION     0.01     0.03     9.55     0  02:39        0.03
  HS02004788           JUNCTION     0.01     0.02     9.92     0  02:43        0.02
  HS02004785           JUNCTION     0.02     0.05     9.95     0  02:43        0.05
  HS02004777           JUNCTION     0.11     0.15     9.95     0  02:44        0.15
  HS02004770           JUNCTION     0.08     0.12     9.95     0  02:43        0.12
  HS02004480           JUNCTION     0.04     0.08     9.32     0  02:42        0.08
  HS02004479           JUNCTION     0.08     0.12     9.32     0  02:41        0.12
  HS02004478           JUNCTION     0.04     0.06     9.28     0  02:42        0.06
  YS02001745           JUNCTION     0.03     0.05     7.56     0  03:01        0.05
  YS02001748           JUNCTION     0.04     0.05     7.13     0  03:01        0.05
  YS02001751           JUNCTION     0.11     0.15     7.03     0  03:22        0.15
  YS02001754           JUNCTION     0.34     0.43     7.04     0  05:25        0.43
  YS02001762           JUNCTION     0.53     0.63     7.03     0  03:22        0.63
  YS02001765           JUNCTION     0.48     0.58     7.03     0  03:21        0.58
  YS02001767           JUNCTION     0.45     0.54     7.03     0  03:21        0.54
  YS02001770           JUNCTION     0.45     0.54     7.03     0  03:20        0.54
  YS02001774           JUNCTION     0.51     0.61     7.03     0  03:20        0.61
  YS02001779           JUNCTION     0.28     0.35     7.03     0  03:22        0.34
  YS02001882           JUNCTION     0.15     0.20     6.92     0  03:04        0.20
  YS02001884           JUNCTION     0.23     0.30     6.92     0  03:04        0.30
  YS02001759           JUNCTION     0.56     0.67     7.03     0  03:21        0.67
  YS02001887           JUNCTION     0.31     0.38     6.92     0  03:04        0.38
  YS02001890           JUNCTION     0.34     0.41     6.92     0  03:04        0.41
  YS02001898           JUNCTION     0.12     0.17     6.91     0  03:05        0.17
  YS02001901           JUNCTION     0.23     0.30     6.91     0  03:05        0.30
  YS02001904           JUNCTION     0.21     0.28     6.91     0  03:05        0.28
  YS02001907           JUNCTION     0.54     0.62     6.91     0  03:06        0.62
  YS02001910           JUNCTION     0.33     0.40     6.91     0  03:06        0.40
  YS02001915           JUNCTION     0.14     0.19     6.91     0  03:05        0.19
  YS02001918           JUNCTION     0.04     0.05     7.11     0  03:07        0.05
  YS02001619           JUNCTION     0.08     0.11     7.04     0  03:26        0.11
  YS02001629           JUNCTION     0.39     0.48     7.03     0  03:26        0.48
  YS02001641           JUNCTION     0.50     0.59     7.03     0  03:27        0.59
  YS02001644           JUNCTION     0.50     0.60     7.03     0  03:24        0.60
  YS02001652           JUNCTION     0.35     0.43     7.03     0  03:22        0.43
  YS02001655           JUNCTION     0.14     0.18     7.03     0  03:21        0.18
  YS02001920           JUNCTION     0.12     0.12     7.13     0  03:06        0.12
  YS02001923           JUNCTION     0.03     0.03     7.29     0  03:04        0.03
  YS02001926           JUNCTION     0.07     0.09     7.53     0  03:04        0.09
  YS02001929           JUNCTION     0.03     0.03     7.73     0  03:01        0.03
  YS02001658           JUNCTION     0.04     0.05     7.20     0  03:01        0.05
  YS02001661           JUNCTION     0.10     0.12     7.53     0  03:01        0.12
  YS02001664           JUNCTION     0.03     0.05     7.97     0  03:01        0.05
  YS02001622           JUNCTION     0.10     0.13     7.03     0  03:17        0.13
  YS02001633           JUNCTION     0.48     0.58     7.03     0  03:28        0.58
  YS02001649           JUNCTION     0.54     0.64     7.03     0  03:22        0.64
  YS02001757           JUNCTION     0.66     0.77     7.03     0  03:21        0.77
  YS02001895           JUNCTION     0.12     0.17     6.92     0  03:04        0.17
  YS02001625           JUNCTION     0.36     0.43     7.03     0  03:26        0.43
  YS02163301           JUNCTION     0.42     0.51     7.03     0  03:26        0.51
  YS02163601           JUNCTION     0.54     0.63     7.03     0  03:25        0.63
  YS02164001           JUNCTION     0.48     0.57     7.03     0  03:27        0.57
  YS02001647           JUNCTION     0.34     0.42     7.03     0  03:24        0.42
  YSB1154              JUNCTION     0.21     0.27     9.33     0  02:42        0.27
  YSB6556              JUNCTION     0.11     0.16     9.33     0  02:41        0.16
  YSB1174              JUNCTION     0.16     0.22     9.33     0  02:42        0.22
  YSB1171              JUNCTION     0.36     0.42     9.33     0  02:41        0.42
  YS02006553           JUNCTION     0.54     0.62     6.91     0  03:05        0.62
  YS02006561           JUNCTION     0.06     0.09     6.75     0  03:05        0.09
  YS02006556           JUNCTION     0.51     0.60     6.91     0  03:05        0.60
  YS02006558           JUNCTION     0.56     0.64     6.91     0  03:05        0.64
  YS02001783           JUNCTION     0.10     0.15     6.29     0  03:06        0.15
  YS02001784           JUNCTION     0.13     0.19     6.25     0  03:06        0.19
  YS02001786           JUNCTION     0.12     0.16     6.19     0  03:06        0.16
  YS02001788           JUNCTION     0.08     0.11     6.09     0  03:07        0.11
  YS02001790           JUNCTION     0.09     0.13     5.78     0  03:07        0.13
  YS02001791           JUNCTION     0.06     0.09     5.56     0  03:10        0.09
  YS02001793           JUNCTION     0.04     0.06     4.89     0  03:14        0.06
  WS02004139           JUNCTION     0.58     0.71     5.62     0  07:50        0.71
  WSC                  OUTFALL      0.24     0.32     0.99     0  04:06        0.32
  3                    OUTFALL      0.00     0.10     6.10     0  00:35        0.10
  4                    OUTFALL      0.00     0.00     7.00     0  00:00        0.00
  5                    OUTFALL      0.00     0.00     5.00     0  00:00        0.00
  JK-storage           STORAGE      0.11     3.02     3.82     0  00:20        3.02
  CC-storage           STORAGE      0.00     0.01     7.01     0  04:41        0.01
  XR-storage           STORAGE      3.03     5.00     3.00     0  00:00        4.91
  
  
  *******************
  Node Inflow Summary
  *******************
  
  -------------------------------------------------------------------------------------------------
                                  Maximum  Maximum                  Lateral       Total        Flow
                                  Lateral    Total  Time of Max      Inflow      Inflow     Balance
                                   Inflow   Inflow   Occurrence      Volume      Volume       Error
  Node                 Type           LPS      LPS  days hr:min    10^6 ltr    10^6 ltr     Percent
  -------------------------------------------------------------------------------------------------
  WS02001211           JUNCTION      7.35   387.61     0  07:50       0.207        6.61       0.595
  WS02001212           JUNCTION      0.00   387.54     0  07:50           0        6.57       0.386
  WS02001213           JUNCTION      0.00   387.54     0  07:50           0        6.54       0.378
  WS02003069           JUNCTION      0.32   621.78     0  04:03     0.00902        9.79       0.269
  WS02003072           JUNCTION      0.00   621.55     0  04:04           0        9.77       0.343
  WS02003073           JUNCTION      1.82   623.21     0  04:05      0.0514        9.78       0.382
  WS02003060           JUNCTION     16.53   621.05     0  04:03       0.466        9.81       0.261
  WS02003066           JUNCTION      0.00   256.71     0  04:08           0        2.87       0.088
  WS02003059           JUNCTION      0.00   387.61     0  07:50           0        6.52       0.580
  WS02003067           JUNCTION      0.00   256.71     0  04:08           0        2.87       0.212
  WS02004401           JUNCTION      0.00   258.74     0  04:01           0        3.02       0.450
  WS02004402           JUNCTION      0.00   258.32     0  04:02           0           3       0.446
  WS02004403           JUNCTION      0.00   258.09     0  04:02           0        2.99       0.425
  WS02004404           JUNCTION      0.16   258.12     0  04:03     0.00457        2.98       0.342
  WS02004406           JUNCTION      0.00   258.03     0  04:03           0        2.96       0.847
  WS02004409           JUNCTION      0.00   257.99     0  04:04           0        2.93       0.249
  WS02004410           JUNCTION      0.00   257.53     0  04:05           0        2.92       0.317
  WS02004411           JUNCTION      0.00   257.16     0  04:06           0        2.91       0.355
  WS02004412           JUNCTION      0.00   256.91     0  04:07           0         2.9       0.422
  WS02004413           JUNCTION      0.00   256.77     0  04:07           0        2.89       0.685
  WS02004405           JUNCTION      0.04   258.09     0  04:03     0.00107        2.97       0.513
  WS02006109           JUNCTION      1.23   260.85     0  03:57      0.0347        3.08       0.393
  WS02006110           JUNCTION      0.00   260.82     0  03:58           0        3.07       0.387
  WS02006111           JUNCTION      0.00   262.81     0  03:58           0        3.05       0.052
  WS02006112           JUNCTION      1.37   260.96     0  03:58     0.00673        3.06       0.678
  WS02006113           JUNCTION      0.00   260.79     0  03:58           0        3.06       0.110
  WS02006115           JUNCTION      0.00   260.15     0  03:59           0        3.04       0.358
  WS02006116           JUNCTION      0.00   259.32     0  04:00           0        3.03       0.311
  WS02006230           JUNCTION     10.28   242.57     0  03:57        0.29        2.69       0.177
  WS02006231           JUNCTION      0.00   232.31     0  03:56           0         2.4       0.131
  WS02006232           JUNCTION      0.00   232.35     0  03:56           0        2.41       0.306
  WS02006234           JUNCTION      0.00   232.41     0  03:55           0        2.41       0.010
  WS02006235           JUNCTION      0.00   232.98     0  04:49           0        2.45       0.200
  WS02006238           JUNCTION      0.00   169.03     0  04:49           0        1.26       0.162
  WS02006240           JUNCTION      0.00   188.21     0  04:48           0        1.23       0.237
  WS02006242           JUNCTION      0.00   200.81     0  04:48           0        1.22       0.393
  WS02006243           JUNCTION      0.00   209.10     0  04:47           0        1.22       0.099
  WS02006245           JUNCTION      0.00   213.33     0  04:47           0        1.22       0.783
  WS02006247           JUNCTION      0.00   220.00     0  04:47           0        1.23       0.308
  WS02006248           JUNCTION      0.00   227.36     0  04:47           0        1.22      -0.297
  WS02006249           JUNCTION      0.00   242.18     0  04:46           0        1.23       0.877
  WS02006239           JUNCTION      0.00   178.89     0  04:49           0        1.25       0.143
  WS02006251           JUNCTION      0.08   273.48     0  04:46     0.00217        1.27       0.153
  WS02006252           JUNCTION      0.00   273.94     0  04:46           0         1.2       0.007
  WS02006253           JUNCTION      0.20    26.84     0  05:21    0.000877      0.0674       1.875
  WS02006256           JUNCTION      0.00   300.00     0  00:30           0        1.29       0.123
  WS02004138           JUNCTION      0.00   380.00     0  00:00           0        6.44       0.104
  WS02004407           JUNCTION      0.00   258.00     0  04:04           0        2.93       0.113
  WS02006228           JUNCTION      0.00   259.69     0  03:56           0        3.05       0.276
  WS02006229           JUNCTION      0.00   259.79     0  03:56           0        3.06       0.232
  WS02006280           JUNCTION      0.00    39.45     0  02:43           0       0.377       0.020
  WS02006284           JUNCTION      0.10    39.45     0  02:42      0.0027       0.378       0.314
  WS02006287           JUNCTION      0.00    39.36     0  02:42           0       0.376       0.183
  WSF200               JUNCTION      0.00   256.71     0  04:08           0        2.86       0.071
  HS02004901           JUNCTION      1.69     1.69     0  02:27     0.00811     0.00824      27.001
  HS02004881           JUNCTION      0.69     5.73     0  02:39     0.00352      0.0366       0.174
  HS02004876           JUNCTION      1.14     5.13     0  02:36     0.00664      0.0336       1.499
  HS02004870           JUNCTION      1.24     4.02     0  02:35     0.00663       0.027       0.377
  HS02004862           JUNCTION      1.22     2.83     0  02:36      0.0121      0.0206       0.781
  HS02004856           JUNCTION      0.92     1.62     0  02:35     0.00498      0.0099      16.880
  HS02004852           JUNCTION      0.00     0.74     0  02:37           0     0.00496       0.807
  HS02004848           JUNCTION      2.12     2.12     0  02:36      0.0151      0.0151       0.240
  HS02004842           JUNCTION      0.00     4.48     0  00:03           0      0.0232     128.030
  HS02004837           JUNCTION      8.36     9.74     0  02:32       0.191       0.201       0.406
  HS02004830           JUNCTION      0.15     9.89     0  02:33     0.00423       0.191       0.647
  HS02004824           JUNCTION      2.44    12.32     0  02:36      0.0203        0.21       0.256
  HS02004817           JUNCTION      0.60    12.92     0  02:37      0.0169       0.226       7.934
  HS02004807           JUNCTION      2.32    15.07     0  02:37      0.0122       0.222       1.936
  HS02004802           JUNCTION      0.00    15.02     0  02:40           0       0.218       1.896
  HS02004799           JUNCTION      1.80    20.84     0  02:39     0.00984       0.156       1.436
  HS02004792           JUNCTION      8.21    19.14     0  02:39      0.0491       0.147       0.287
  HS02004788           JUNCTION      4.13    11.56     0  02:42      0.0607      0.0987       0.394
  HS02004785           JUNCTION      0.15     7.66     0  02:42     0.00423      0.0402       1.172
  HS02004777           JUNCTION      0.03     7.73     0  02:35    0.000846      0.0403      14.670
  HS02004770           JUNCTION      6.73     8.10     0  02:29      0.0345       0.041       8.176
  HS02004480           JUNCTION      0.00    24.37     0  02:41           0       0.174       0.331
  HS02004479           JUNCTION      0.00     3.57     0  02:43           0      0.0305       2.434
  HS02004478           JUNCTION      0.00    39.36     0  02:42           0       0.377       0.197
  YS02001745           JUNCTION     11.25    11.25     0  03:01        0.15        0.15       0.114
  YS02001748           JUNCTION      0.04    11.29     0  03:01     0.00127       0.151       0.061
  YS02001751           JUNCTION      0.01    20.70     0  06:32     0.00031       0.176       1.115
  YS02001754           JUNCTION      0.26    64.46     0  06:32     0.00733       0.302       2.837
  YS02001762           JUNCTION      0.00    21.28     0  06:28           0       0.198       7.021
  YS02001765           JUNCTION      0.00    32.72     0  06:28           0        0.19       7.665
  YS02001767           JUNCTION      0.54    27.56     0  07:01      0.0151       0.194      10.646
  YS02001770           JUNCTION     15.04    16.84     0  07:36       0.188       0.206       8.226
  YS02001774           JUNCTION      0.00    15.86     0  07:36           0      0.0494      39.636
  YS02001779           JUNCTION      0.01     8.67     0  07:06    0.000141      0.0206      30.319
  YS02001882           JUNCTION      0.00     1.10     0  02:08           0     0.00177     148.939
  YS02001884           JUNCTION      0.00     3.38     0  02:11           0     0.00754      86.772
  YS02001759           JUNCTION     14.76    40.77     0  06:29       0.177       0.348       4.627
  YS02001887           JUNCTION     20.10    20.10     0  03:01        0.23       0.233       2.493
  YS02001890           JUNCTION      0.00    19.85     0  03:00           0        0.22       2.945
  YS02001898           JUNCTION      0.00    19.63     0  03:03           0       0.212       0.608
  YS02001901           JUNCTION      0.00    19.71     0  03:03           0       0.212       1.969
  YS02001904           JUNCTION      0.00    19.62     0  03:06           0       0.212       1.846
  YS02001907           JUNCTION      0.00    36.97     0  03:06           0       0.481       4.273
  YS02001910           JUNCTION      0.00    17.58     0  03:01           0       0.279       3.089
  YS02001915           JUNCTION     10.25    17.53     0  03:01       0.132       0.282       1.026
  YS02001918           JUNCTION      0.00     7.37     0  03:06           0        0.15       0.342
  YS02001619           JUNCTION      9.91     9.91     0  03:01       0.129       0.129       0.346
  YS02001629           JUNCTION      0.00    13.72     0  07:45           0        0.12       4.537
  YS02001641           JUNCTION      0.00    29.09     0  03:20           0       0.237       5.357
  YS02001644           JUNCTION     10.69    38.88     0  03:20       0.144       0.362       4.237
  YS02001652           JUNCTION      0.00    22.80     0  07:03           0       0.174       4.969
  YS02001655           JUNCTION      0.15    14.05     0  03:01     0.00434       0.164       1.627
  YS02001920           JUNCTION      2.87     7.38     0  03:04      0.0809       0.152       0.864
  YS02001923           JUNCTION      0.04     4.51     0  03:04     0.00106      0.0709       0.168
  YS02001926           JUNCTION      0.05     4.50     0  03:01     0.00147      0.0707       1.300
  YS02001929           JUNCTION      4.45     4.45     0  03:01      0.0694      0.0694       0.149
  YS02001658           JUNCTION      0.00    13.90     0  03:01           0       0.158       0.082
  YS02001661           JUNCTION      0.00    13.90     0  03:01           0       0.158       0.364
  YS02001664           JUNCTION     13.91    13.91     0  03:01       0.159       0.159       0.059
  YS02001622           JUNCTION      0.00     9.97     0  03:02           0       0.129       1.481
  YS02001633           JUNCTION     10.97    25.37     0  03:19       0.151        0.26       7.111
  YS02001649           JUNCTION      0.00    55.51     0  06:31           0       0.489       4.852
  YS02001757           JUNCTION      0.00   120.63     0  05:29           0           1       7.213
  YS02001895           JUNCTION      0.00    19.68     0  03:01           0       0.214       0.999
  YS02001625           JUNCTION      0.00    12.60     0  06:52           0       0.129      11.181
  YS02163301           JUNCTION      0.00    16.82     0  07:45           0       0.123      10.272
  YS02163601           JUNCTION      0.11    26.93     0  03:19      0.0031       0.243       8.087
  YS02164001           JUNCTION      0.00    27.65     0  03:20           0       0.234       4.947
  YS02001647           JUNCTION      0.00    38.55     0  03:19           0       0.337       3.431
  YSB1154              JUNCTION      2.03     2.03     0  02:30      0.0118      0.0133      12.126
  YSB6556              JUNCTION      0.00     2.21     0  01:37           0      0.0145       9.371
  YSB1174              JUNCTION      1.91     1.91     0  02:26     0.00882     0.00991      14.878
  YSB1171              JUNCTION      0.00     3.65     0  02:37           0        0.03      26.668
  YS02006553           JUNCTION      0.00    37.05     0  03:08           0       0.468       2.825
  YS02006561           JUNCTION      0.00    53.70     0  03:05           0       0.643       0.050
  YS02006556           JUNCTION      0.00    37.11     0  03:08           0        0.47       1.990
  YS02006558           JUNCTION     17.29    53.72     0  03:05       0.215       0.665       0.590
  YS02001783           JUNCTION      0.00    53.69     0  03:05           0       0.643       0.116
  YS02001784           JUNCTION      1.06    54.74     0  03:06      0.0299       0.672       0.198
  YS02001786           JUNCTION      0.06    54.77     0  03:06     0.00159       0.672       0.204
  YS02001788           JUNCTION      0.07    54.84     0  03:07       0.002       0.673       0.105
  YS02001790           JUNCTION      0.15    54.99     0  03:07     0.00437       0.676       0.137
  YS02001791           JUNCTION      0.00    54.99     0  03:07           0       0.675       0.067
  YS02001793           JUNCTION      0.00    55.47     0  03:14           0       0.675       0.023
  WS02004139           JUNCTION      0.32   394.45     0  00:00     0.00905        6.44       0.694
  WSC                  OUTFALL       0.00   622.75     0  04:06           0        9.75       0.000
  3                    OUTFALL       0.00   159.18     0  00:35           0      0.0711       0.000
  4                    OUTFALL       0.00     0.00     0  00:00           0           0       0.000 ltr
  5                    OUTFALL       0.00     0.00     0  00:00           0           0       0.000 ltr
  JK-storage           STORAGE       0.00    56.91     0  03:10           0       0.826     -36.440
  CC-storage           STORAGE       0.00    79.38     0  03:24           0       0.807     -32.643
  XR-storage           STORAGE     218.46   218.46     0  03:01        5.88        6.48      -0.001
  
  
  **********************
  Node Surcharge Summary
  **********************
  
  Surcharging occurs when water rises above the top of the highest conduit.
  ---------------------------------------------------------------------
                                               Max. Height   Min. Depth
                                   Hours       Above Crown    Below Rim
  Node                 Type      Surcharged         Meters       Meters
  ---------------------------------------------------------------------
  WS02006252           JUNCTION        0.01          0.053        1.047
  
  
  *********************
  Node Flooding Summary
  *********************
  
  No nodes were flooded.
  
  
  **********************
  Storage Volume Summary
  **********************
  
  --------------------------------------------------------------------------------------------------
                         Average     Avg  Evap Exfil       Maximum     Max    Time of Max    Maximum
                          Volume    Pcnt  Pcnt  Pcnt        Volume    Pcnt     Occurrence    Outflow
  Storage Unit           1000 m3    Full  Loss  Loss       1000 m3    Full    days hr:min        LPS
  --------------------------------------------------------------------------------------------------
  JK-storage               0.005       2     0     0         0.151      52       0  00:20     300.00
  CC-storage               0.001       0     0     0         0.037       0       0  04:41     273.94
  XR-storage               0.363      39     0     0         0.600      65       0  00:00     380.00
  
  
  ***********************
  Outfall Loading Summary
  ***********************
  
  -----------------------------------------------------------
                         Flow       Avg       Max       Total
                         Freq      Flow      Flow      Volume
  Outfall Node           Pcnt       LPS       LPS    10^6 ltr
  -----------------------------------------------------------
  WSC                   99.99    379.69    622.75       9.746
  3                      3.93    127.72    159.18       0.071
  4                      0.00      0.00      0.00       0.000
  5                      0.00      0.00      0.00       0.000
  -----------------------------------------------------------
  System                25.98    507.41    622.75       9.817
  
  
  ********************
  Link Flow Summary
  ********************
  
  -----------------------------------------------------------------------------
                                 Maximum  Time of Max   Maximum    Max/    Max/
                                  |Flow|   Occurrence   |Veloc|    Full    Full
  Link                 Type          LPS  days hr:min     m/sec    Flow   Depth
  -----------------------------------------------------------------------------
  WS02003066WSF200     CONDUIT    256.71     0  04:08      2.37    0.04    0.15
  WS02006287WS02006284 CONDUIT     39.36     0  02:42      0.87    0.02    0.11
  WS02006284WS02006280 CONDUIT     39.45     0  02:43      1.14    0.02    0.09
  WS02006280WS02006229 CONDUIT     39.45     0  02:43      1.81    0.01    0.07
  WS02006229WS02006228 CONDUIT    259.69     0  03:56      0.60    0.86    0.81
  WS02006256WS02006235 CONDUIT    150.00     0  00:25      2.14    1.59    1.00
  WS02006253WS02006251 CONDUIT     72.83     0  04:47      0.43    0.22    0.62
  WS02006252WS02006251 CONDUIT    273.40     0  04:46      2.68    1.00    0.95
  WS02006251WS02006249 CONDUIT    242.18     0  04:46      1.01    0.70    0.60
  WS02006249WS02006248 CONDUIT    227.36     0  04:47      1.09    1.25    0.53
  WS02006248WS02006247 CONDUIT    220.00     0  04:47      1.05    0.48    0.54
  WS02006247WS02006245 CONDUIT    213.33     0  04:47      1.01    1.69    0.54
  WS02006245WS02006243 CONDUIT    209.10     0  04:47      1.12    0.62    0.49
  WS02006243WS02006242 CONDUIT    200.81     0  04:48      0.96    0.43    0.54
  WS02006242WS02006240 CONDUIT    188.21     0  04:48      0.82    0.75    0.60
  WS02006240WS02006239 CONDUIT    178.89     0  04:49      0.84    0.56    0.59
  WS02006239WS02006238 CONDUIT    169.03     0  04:49      0.66    0.54    0.69
  WS02006238WS02006235 CONDUIT    162.69     0  04:49      0.75    0.36    0.73
  WS02006235WS02006234 CONDUIT    232.41     0  03:55      0.95    2.45    0.67
  WS02006234WS02006232 CONDUIT    232.35     0  03:56      0.83    0.47    0.74
  WS02006232WS02006231 CONDUIT    232.31     0  03:56      0.81    0.49    0.70
  WS02006231WS02006230 CONDUIT    232.30     0  03:57      1.16    3.52    0.52
  WS02006230WS02006229 CONDUIT    242.53     0  03:57      0.71    5.40    0.87
  WS02006228WS02006109 CONDUIT    259.62     0  03:57      0.57    1.13    0.84
  WS02006116WS02004401 CONDUIT    258.74     0  04:01      0.77    0.36    0.61
  WS02006115WS02006116 CONDUIT    259.32     0  04:00      0.93    0.33    0.52
  WS02006113WS02006111 CONDUIT    262.81     0  03:58      1.93    0.32    0.32
  WS02006112WS02006115 CONDUIT    260.15     0  03:59      0.49    0.15    0.65
  WS02006111WS02006112 CONDUIT    260.81     0  03:58      1.26    0.12    0.60
  WS02006110WS02006113 CONDUIT    260.79     0  03:58      0.78    0.24    0.63
  WS02006109WS02006110 CONDUIT    260.82     0  03:58      0.60    0.50    0.80
  WS02004411WS02004412 CONDUIT    256.91     0  04:07      0.65    0.36    0.50
  WS02004401WS02004402 CONDUIT    258.32     0  04:02      0.82    0.31    0.65
  WS02004413WS02003067 CONDUIT    256.71     0  04:08      0.74    0.11    0.45
  WS02004412WS02004413 CONDUIT    256.77     0  04:07      0.53    0.17    0.60
  WS02004410WS02004411 CONDUIT    257.16     0  04:06      0.69    0.35    0.48
  WS02004409WS02004410 CONDUIT    257.53     0  04:05      0.74    0.33    0.46
  WS02004407WS02004409 CONDUIT    257.99     0  04:04      1.17    0.09    0.33
  WS02004406WS02004407 CONDUIT    258.00     0  04:04      0.67    0.12    0.49
  WS02004405WS02004406 CONDUIT    258.03     0  04:03      0.74    0.51    0.77
  WS02004404WS02004405 CONDUIT    258.05     0  04:03      0.96    2.53    0.77
  WS02004403WS02004404 CONDUIT    257.95     0  04:03      0.85    0.19    0.73
  WS02004402WS02004403 CONDUIT    258.09     0  04:02      0.86    0.37    0.68
  WS02004139WS02001211 CONDUIT    380.26     0  07:50      0.90    0.48    0.57
  WS02004138WS02004139 CONDUIT    394.13     0  00:00      3.62    0.08    0.43
  WS02003067WS02003066 CONDUIT    256.71     0  04:08      0.80    0.08    0.33
  WS02001213WS02003059 CONDUIT    387.61     0  07:50      0.89    0.64    0.69
  WS02001212WS02001213 CONDUIT    387.54     0  07:50      1.32    0.60    0.41
  WS02001211WS02001212 CONDUIT    387.54     0  07:50      0.78    0.30    0.61
  WS02003072WS02003073 CONDUIT    621.39     0  04:05      1.49    1.34    0.40
  WS02003069WS02003072 CONDUIT    621.55     0  04:04      1.42    0.30    0.41
  WS02003060WS02003069 CONDUIT    621.46     0  04:03      1.69    0.24    0.36
  WS02003059WS02003060 CONDUIT    387.77     0  07:50      0.93    0.25    0.57
  HS02004901HS02004770 CONDUIT      1.50     0  02:40      0.02    0.01    0.18
  HS02004876HS02004881 CONDUIT      5.09     0  02:40      0.19    0.05    0.04
  HS02004870HS02004876 CONDUIT      4.01     0  02:37      0.14    0.00    0.04
  HS02004842HS02004848 CONDUIT      1.40     0  02:40      0.01    0.00    0.25
  HS02004837HS02004842 CONDUIT      4.48     0  00:03      0.42    0.00    0.26
  HS02004830HS02004837 CONDUIT      9.74     0  02:33      0.30    0.01    0.05
  HS02004824HS02004830 CONDUIT      9.89     0  02:35      0.34    0.01    0.04
  HS02004817HS02004824 CONDUIT     12.32     0  02:37      0.17    0.01    0.33
  HS02004770HS02004777 CONDUIT      7.70     0  02:35      0.06    0.01    0.20
  HS02004799HS02004480 CONDUIT     20.81     0  02:40      0.21    0.03    0.14
  HS02004792HS02004799 CONDUIT     19.13     0  02:39      0.25    0.01    0.11
  HS02004788HS02004792 CONDUIT     11.55     0  02:43      0.43    0.01    0.04
  HS02004785HS02004788 CONDUIT      7.62     0  02:43      0.21    0.06    0.05
  HS02004777HS02004785 CONDUIT      7.51     0  02:42      0.07    0.01    0.15
  HS02004480HS02004478 CONDUIT     24.35     0  02:42      0.43    0.10    0.08
  HS02004479HS02004480 CONDUIT      3.60     0  02:43      0.16    0.00    0.15
  HS02004862HS02004870 CONDUIT      2.82     0  02:38      0.21    0.00    0.02
  HS02004848HS02004852 CONDUIT      0.74     0  02:37      0.12    0.00    0.01
  HS02004856HS02004862 CONDUIT      1.62     0  02:37      0.14    0.00    0.02
  HS02004852HS02004856 CONDUIT      0.73     0  02:39      0.02    0.00    0.06
  HS02004802HS02004478 CONDUIT     15.01     0  02:43      0.14    0.01    0.15
  HS02004478WS02006287 CONDUIT     39.36     0  02:42      0.61    0.01    0.07
  HS02004817HS02004807 CONDUIT     12.89     0  02:42      0.05    0.01    0.40
  HS02004807HS02004802 CONDUIT     15.02     0  02:40      0.18    0.03    0.19
  YS02001759YS02001757 CONDUIT     34.90     0  06:52      0.12    0.02    0.72
  YS02001762YS02001759 CONDUIT     35.41     0  06:29      0.17    0.04    0.65
  YS02001765YS02001762 CONDUIT     21.28     0  06:28      0.21    0.02    0.61
  YS02001770YS02001767 CONDUIT     22.38     0  06:51      0.24    0.09    0.54
  YS02001774YS02001770 CONDUIT     15.86     0  07:36      0.13    0.01    0.56
  YS02001779YS02001774 CONDUIT      8.66     0  07:06      0.03    0.00    0.48
  YS02001649YS02001757 CONDUIT     48.37     0  03:31      0.09    0.03    0.70
  YS02001767YS02001765 CONDUIT     32.72     0  06:28      0.26    0.04    0.56
  YS02006561YS02001783 CONDUIT     53.69     0  03:05      1.13    0.03    0.15
  YS02001783YS02001784 CONDUIT     53.68     0  03:06      0.71    0.07    0.21
  YS02001784YS02001785 CONDUIT     54.72     0  03:06      0.69    0.13    0.21
  YS02001788YS02001790 CONDUIT     54.84     0  03:07      1.13    0.04    0.15
  YS02001790YS02001791 CONDUIT     54.99     0  03:07      1.29    0.06    0.14
  YS02001791YS02001793 CONDUIT     55.47     0  03:14      2.56    0.02    0.09
  YS02001910YS02001907 CONDUIT     17.49     0  03:05      0.49    0.01    0.50
  YS02001786YS02001788 CONDUIT     54.77     0  03:07      0.99    0.11    0.17
  YS02001915YS02001910 CONDUIT     17.58     0  03:01      0.44    0.01    0.29
  YS02001918YS02001915 CONDUIT      7.37     0  03:07      0.44    0.00    0.12
  YS02001923YS02001920 CONDUIT      4.51     0  03:04      0.16    0.00    0.08
  YS02001926YS02001923 CONDUIT      4.47     0  03:04      0.23    0.01    0.06
  YS02001929YS02001926 CONDUIT      4.44     0  03:01      0.23    0.00    0.06
  YS02001920YS02001918 CONDUIT      7.37     0  03:06      0.23    0.01    0.09
  YS02001629YS02163301 CONDUIT     16.82     0  07:45      0.06    0.02    0.50
  YS02001619YS02001622 CONDUIT      9.97     0  03:02      0.39    0.01    0.12
  YS02001622YS02001625 CONDUIT     12.60     0  06:52      0.14    0.01    0.28
  YS02001625YS02001629 CONDUIT     13.72     0  07:45      0.09    0.01    0.27
  YS02163301YS02001633 CONDUIT     17.54     0  07:45      0.05    0.02    0.55
  YS02163601YS02164001 CONDUIT     27.65     0  03:20      0.06    0.02    0.60
  YS02164001YS02001641 CONDUIT     29.09     0  03:20      0.06    0.04    0.58
  YS02001641YS02001644 CONDUIT     29.03     0  03:20      0.08    0.09    0.59
  YS02001647YS02001649 CONDUIT     38.01     0  03:20      0.10    0.02    0.53
  YS02006553YS02006556 CONDUIT     37.11     0  03:08      0.18    0.03    0.59
  YS02006556YS02006558 CONDUIT     37.10     0  03:08      0.07    0.03    0.62
  YSB6556YSB1171       CONDUIT      2.21     0  01:37      0.03    0.00    0.41
  YS02001907YS02006553 CONDUIT     37.05     0  03:08      0.06    0.04    0.67
  YS02006558YS02006561 CONDUIT     53.70     0  03:05      1.41    0.12    0.19
  YS02001633YS02163601 CONDUIT     26.82     0  03:19      0.06    0.03    0.59
  YS02001644YS02001647 CONDUIT     38.55     0  03:19      0.10    0.02    0.51
  YS02001745YS02001748 CONDUIT     11.25     0  03:01      0.82    0.00    0.05
  YS02001748YS02001751 CONDUIT     11.29     0  03:01      0.69    0.01    0.10
  YS02001751YS02001754 CONDUIT     28.24     0  06:48      0.66    0.01    0.26
  YS02001754YS02001757 CONDUIT     54.25     0  06:34      0.33    0.02    0.60
  YS02001882YS02001884 CONDUIT      1.10     0  02:08      0.06    0.00    0.22
  YS02001884YS02001887 CONDUIT      3.38     0  02:11      0.04    0.00    0.32
  YS02001890YS02001895 CONDUIT     19.68     0  03:01      0.10    0.01    0.29
  YS02001895YS02001898 CONDUIT     19.63     0  03:03      0.30    0.03    0.16
  YS02001898YS02001901 CONDUIT     19.71     0  03:03      0.14    0.01    0.24
  YS02001901YS02001904 CONDUIT     19.62     0  03:06      0.18    0.03    0.29
  YS02001904YS02001907 CONDUIT     19.66     0  03:06      0.06    0.01    0.45
  YS02001887YS02001890 CONDUIT     19.85     0  03:00      0.10    0.03    0.37
  YS02001652YS02001649 CONDUIT     21.95     0  07:11      0.22    0.01    0.54
  YS02001655YS02001652 CONDUIT     15.54     0  03:22      0.70    0.01    0.29
  YS02001658YS02001655 CONDUIT     13.90     0  03:01      0.78    0.01    0.12
  YS02001661YS02001658 CONDUIT     13.90     0  03:01      0.84    0.01    0.05
  YS02001664YS02001661 CONDUIT     13.90     0  03:01      0.43    0.00    0.09
  YSB1154YSB6556       CONDUIT      2.01     0  02:34      0.19    0.00    0.30
  YSB1174YSB1171       CONDUIT      1.89     0  02:26      0.02    0.00    0.42
  YSB1171HS02004479    CONDUIT      3.57     0  02:43      0.54    0.00    0.31
  HS02004881HS02006253 CONDUIT      5.73     0  02:39      0.78    0.00    0.09
  YS02001793JiankangQianchi CONDUIT     56.91     0  03:10      7.84    0.00    0.50
  YS02001757CaochengTiaoxuchi CONDUIT     79.38     0  03:24      0.29    0.03    0.39
  WSF200WS02003060     CONDUIT    256.71     0  04:09      1.30    0.06    0.25
  1                    CONDUIT    622.75     0  04:06      2.92    0.22    0.32
  2                    CONDUIT      0.00     0  00:00      0.00    0.00    0.00
  3                    CONDUIT    159.18     0  00:35      7.36    0.25    0.34
  4                    CONDUIT      0.00     0  00:00      0.00    0.00    0.00
  CC-Pump-1            PUMP       136.97     0  04:46              0.68
  CC-Pump-2            PUMP       136.97     0  04:46              0.68
  JK-Pump-1            PUMP       151.24     0  00:35              0.50
  JK-Pump-2            PUMP       299.87     0  00:30              1.00
  XR-Pump-1            PUMP        95.00     0  00:00              1.00
  XR-Pump-2            PUMP        95.00     0  00:00              1.00
  XR-Pump-3            PUMP        95.00     0  00:00              1.00
  XR-Pump-4            PUMP        95.00     0  00:00              1.00
  
  
  ***************************
  Flow Classification Summary
  ***************************
  
  -------------------------------------------------------------------------------------
                      Adjusted    ---------- Fraction of Time in Flow Class ---------- 
                       /Actual         Up    Down  Sub   Sup   Up    Down  Norm  Inlet 
  Conduit               Length    Dry  Dry   Dry   Crit  Crit  Crit  Crit  Ltd   Ctrl  
  -------------------------------------------------------------------------------------
  WS02003066WSF200        1.00   0.04  0.06  0.00  0.00  0.91  0.00  0.00  0.80  0.00
  WS02006287WS02006284    1.00   0.07  0.03  0.00  0.86  0.04  0.00  0.00  0.81  0.00
  WS02006284WS02006280    1.00   0.08  0.00  0.00  0.00  0.00  0.00  0.92  0.00  0.00
  WS02006280WS02006229    1.00   0.08  0.00  0.00  0.00  0.00  0.00  0.92  0.00  0.00
  WS02006229WS02006228    1.00   0.00  0.00  0.00  1.00  0.00  0.00  0.00  0.00  0.00
  WS02006256WS02006235    1.00   0.01  0.00  0.00  0.99  0.00  0.00  0.00  0.00  0.00
  WS02006253WS02006251    1.00   0.02  0.06  0.00  0.93  0.00  0.00  0.00  0.00  0.00
  WS02006252WS02006251    1.00   0.18  0.00  0.00  0.00  0.00  0.81  0.00  0.00  0.00
  WS02006251WS02006249    1.00   0.00  0.00  0.00  1.00  0.00  0.00  0.00  0.48  0.00
  WS02006249WS02006248    1.00   0.00  0.01  0.00  0.68  0.00  0.31  0.00  0.00  0.00
  WS02006248WS02006247    1.00   0.01  0.00  0.00  0.95  0.00  0.00  0.04  0.45  0.00
  WS02006247WS02006245    1.00   0.01  0.00  0.00  0.94  0.00  0.00  0.05  0.00  0.00
  WS02006245WS02006243    1.00   0.01  0.00  0.00  0.86  0.00  0.00  0.13  0.05  0.00
  WS02006243WS02006242    1.00   0.01  0.00  0.00  0.98  0.00  0.00  0.01  0.57  0.00
  WS02006242WS02006240    1.00   0.02  0.00  0.00  0.98  0.00  0.00  0.00  0.00  0.00
  WS02006240WS02006239    1.00   0.01  0.00  0.00  0.91  0.00  0.00  0.07  0.01  0.00
  WS02006239WS02006238    1.00   0.01  0.00  0.00  0.99  0.00  0.00  0.00  0.01  0.00
  WS02006238WS02006235    1.00   0.01  0.00  0.00  0.99  0.00  0.00  0.00  0.00  0.00
  WS02006235WS02006234    1.00   0.01  0.00  0.00  0.92  0.00  0.07  0.00  0.00  0.00
  WS02006234WS02006232    1.00   0.01  0.00  0.00  0.99  0.00  0.00  0.00  0.04  0.00
  WS02006232WS02006231    1.00   0.01  0.00  0.00  0.98  0.00  0.00  0.00  0.00  0.00
  WS02006231WS02006230    1.00   0.02  0.00  0.00  0.00  0.00  0.98  0.00  0.00  0.00
  WS02006230WS02006229    1.00   0.00  0.00  0.00  0.99  0.00  0.00  0.01  0.01  0.00
  WS02006228WS02006109    1.00   0.00  0.00  0.00  1.00  0.00  0.00  0.00  0.00  0.00
  WS02006116WS02004401    1.00   0.05  0.00  0.00  0.95  0.00  0.00  0.00  0.00  0.00
  WS02006115WS02006116    1.00   0.05  0.00  0.00  0.94  0.00  0.00  0.01  0.00  0.00
  WS02006113WS02006111    1.00   0.03  0.00  0.00  0.00  0.97  0.00  0.00  0.16  0.00
  WS02006112WS02006115    1.00   0.03  0.02  0.00  0.94  0.00  0.01  0.00  0.00  0.00
  WS02006111WS02006112    1.00   0.03  0.00  0.00  0.96  0.01  0.00  0.01  0.93  0.00
  WS02006110WS02006113    1.00   0.00  0.02  0.00  0.98  0.00  0.00  0.00  0.00  0.00
  WS02006109WS02006110    1.00   0.00  0.00  0.00  0.99  0.00  0.00  0.00  0.00  0.00
  WS02004411WS02004412    1.00   0.07  0.00  0.00  0.93  0.00  0.00  0.00  0.00  0.00
  WS02004401WS02004402    1.00   0.05  0.00  0.00  0.95  0.00  0.00  0.00  0.00  0.00
  WS02004413WS02003067    1.00   0.07  0.02  0.00  0.00  0.00  0.92  0.00  0.00  0.00
  WS02004412WS02004413    1.00   0.07  0.00  0.00  0.93  0.00  0.00  0.00  0.01  0.00
  WS02004410WS02004411    1.00   0.07  0.00  0.00  0.93  0.00  0.00  0.00  0.01  0.00
  WS02004409WS02004410    1.00   0.07  0.00  0.00  0.93  0.00  0.00  0.00  0.03  0.00
  WS02004407WS02004409    1.00   0.07  0.00  0.00  0.93  0.00  0.00  0.00  0.89  0.00
  WS02004406WS02004407    1.00   0.00  0.07  0.00  0.93  0.00  0.00  0.00  0.00  0.00
  WS02004405WS02004406    1.00   0.00  0.00  0.00  1.00  0.00  0.00  0.00  0.04  0.00
  WS02004404WS02004405    1.00   0.00  0.00  0.00  1.00  0.00  0.00  0.00  0.00  0.00
  WS02004403WS02004404    1.00   0.00  0.06  0.00  0.94  0.00  0.00  0.00  0.00  0.00
  WS02004402WS02004403    1.00   0.05  0.00  0.00  0.95  0.00  0.00  0.00  0.00  0.00
  WS02004139WS02001211    1.00   0.00  0.00  0.00  1.00  0.00  0.00  0.00  0.00  0.00
  WS02004138WS02004139    1.00   0.00  0.00  0.00  1.00  0.00  0.00  0.00  1.00  0.00
  WS02003067WS02003066    1.00   0.09  0.01  0.00  0.91  0.00  0.00  0.00  0.00  0.00
  WS02001213WS02003059    1.00   0.00  0.00  0.00  1.00  0.00  0.00  0.00  0.00  0.00
  WS02001212WS02001213    1.00   0.00  0.00  0.00  0.22  0.00  0.78  0.00  0.00  0.00
  WS02001211WS02001212    1.00   0.00  0.00  0.00  1.00  0.00  0.00  0.00  0.00  0.00
  WS02003072WS02003073    1.00   0.00  0.00  0.00  0.00  0.00  0.00  1.00  0.00  0.00
  WS02003069WS02003072    1.00   0.00  0.00  0.00  1.00  0.00  0.00  0.00  0.59  0.00
  WS02003060WS02003069    1.00   0.00  0.00  0.00  0.99  0.01  0.00  0.00  0.25  0.00
  WS02003059WS02003060    1.00   0.00  0.00  0.00  1.00  0.00  0.00  0.00  0.00  0.00
  HS02004901HS02004770    1.00   0.08  0.00  0.00  0.92  0.00  0.00  0.00  0.04  0.00
  HS02004876HS02004881    1.00   0.01  0.00  0.00  0.99  0.00  0.00  0.00  0.00  0.00
  HS02004870HS02004876    1.00   0.00  0.00  0.00  1.00  0.00  0.00  0.00  0.95  0.00
  HS02004842HS02004848    1.00   0.00  0.08  0.00  0.92  0.00  0.00  0.00  0.81  0.00
  HS02004837HS02004842    1.00   0.00  0.00  0.00  1.00  0.00  0.00  0.00  0.11  0.00
  HS02004830HS02004837    1.00   0.00  0.00  0.00  1.00  0.00  0.00  0.00  0.99  0.00
  HS02004824HS02004830    1.00   0.00  0.00  0.00  1.00  0.00  0.00  0.00  0.00  0.00
  HS02004817HS02004824    1.00   0.00  0.00  0.00  1.00  0.00  0.00  0.00  1.00  0.00
  HS02004770HS02004777    1.00   0.00  0.08  0.00  0.92  0.00  0.00  0.00  0.08  0.00
  HS02004799HS02004480    1.00   0.00  0.01  0.00  0.90  0.00  0.09  0.00  0.00  0.00
  HS02004792HS02004799    1.00   0.00  0.00  0.00  1.00  0.00  0.00  0.00  0.98  0.00
  HS02004788HS02004792    1.00   0.00  0.00  0.00  1.00  0.00  0.00  0.00  0.98  0.00
  HS02004785HS02004788    1.00   0.00  0.00  0.00  1.00  0.00  0.00  0.00  0.00  0.00
  HS02004777HS02004785    1.00   0.00  0.00  0.00  1.00  0.00  0.00  0.00  0.23  0.00
  HS02004480HS02004478    1.00   0.09  0.00  0.00  0.85  0.00  0.00  0.06  0.00  0.00
  HS02004479HS02004480    1.00   0.01  0.00  0.00  0.99  0.00  0.00  0.00  0.17  0.00
  HS02004862HS02004870    1.00   0.00  0.00  0.00  1.00  0.00  0.00  0.00  0.06  0.00
  HS02004848HS02004852    1.00   0.08  0.00  0.00  0.92  0.00  0.00  0.00  0.66  0.00
  HS02004856HS02004862    1.00   0.00  0.13  0.00  0.87  0.00  0.00  0.00  0.71  0.00
  HS02004852HS02004856    1.00   0.08  0.02  0.00  0.91  0.00  0.00  0.00  0.81  0.00
  HS02004802HS02004478    1.00   0.08  0.01  0.00  0.91  0.00  0.00  0.00  0.00  0.00
  HS02004478WS02006287    1.00   0.09  0.00  0.00  0.91  0.00  0.00  0.00  0.81  0.00
  HS02004817HS02004807    1.00   0.00  0.08  0.00  0.92  0.00  0.00  0.00  0.00  0.00
  HS02004807HS02004802    1.00   0.08  0.00  0.00  0.92  0.00  0.00  0.00  0.01  0.00
  YS02001759YS02001757    1.00   0.00  0.00  0.00  1.00  0.00  0.00  0.00  0.17  0.00
  YS02001762YS02001759    1.00   0.00  0.00  0.00  1.00  0.00  0.00  0.00  0.06  0.00
  YS02001765YS02001762    1.00   0.00  0.00  0.00  1.00  0.00  0.00  0.00  0.25  0.00
  YS02001770YS02001767    1.00   0.00  0.00  0.00  1.00  0.00  0.00  0.00  0.00  0.00
  YS02001774YS02001770    1.00   0.00  0.10  0.00  0.90  0.00  0.00  0.00  0.07  0.00
  YS02001779YS02001774    1.00   0.00  0.00  0.00  1.00  0.00  0.00  0.00  0.31  0.00
  YS02001649YS02001757    1.00   0.00  0.00  0.00  1.00  0.00  0.00  0.00  0.20  0.00
  YS02001767YS02001765    1.00   0.00  0.00  0.00  1.00  0.00  0.00  0.00  0.01  0.00
  YS02006561YS02001783    1.00   0.13  0.00  0.00  0.00  0.87  0.00  0.00  0.70  0.00
  YS02001783YS02001784    1.00   0.00  0.13  0.00  0.87  0.00  0.00  0.00  0.57  0.00
  YS02001784YS02001785    1.00   0.00  0.00  0.00  1.00  0.00  0.00  0.00  0.29  0.00
  YS02001788YS02001790    1.00   0.00  0.00  0.00  0.13  0.87  0.00  0.00  1.00  0.00
  YS02001790YS02001791    1.00   0.00  0.00  0.00  0.00  1.00  0.00  0.00  0.00  0.00
  YS02001791YS02001793    1.00   0.00  0.00  0.00  0.00  1.00  0.00  0.00  0.00  0.00
  YS02001910YS02001907    1.00   0.00  0.00  0.00  0.99  0.00  0.00  0.01  0.13  0.00
  YS02001786YS02001788    1.00   0.00  0.00  0.00  0.73  0.27  0.00  0.00  0.00  0.00
  YS02001915YS02001910    1.00   0.00  0.00  0.00  1.00  0.00  0.00  0.00  0.27  0.00
  YS02001918YS02001915    1.00   0.00  0.00  0.00  0.99  0.00  0.00  0.00  0.79  0.00
  YS02001923YS02001920    1.00   0.00  0.00  0.00  1.00  0.00  0.00  0.00  1.00  0.00
  YS02001926YS02001923    1.00   0.00  0.06  0.00  0.00  0.00  0.94  0.00  0.00  0.00
  YS02001929YS02001926    1.00   0.00  0.08  0.00  0.92  0.00  0.00  0.00  0.86  0.00
  YS02001920YS02001918    1.00   0.00  0.00  0.00  1.00  0.00  0.00  0.00  0.00  0.00
  YS02001629YS02163301    1.00   0.11  0.01  0.00  0.88  0.00  0.00  0.00  0.00  0.00
  YS02001619YS02001622    1.00   0.08  0.00  0.00  0.92  0.00  0.00  0.00  0.00  0.00
  YS02001622YS02001625    1.00   0.08  0.00  0.00  0.92  0.00  0.00  0.00  0.17  0.00
  YS02001625YS02001629    1.00   0.08  0.06  0.00  0.82  0.00  0.04  0.00  0.00  0.00
  YS02163301YS02001633    1.00   0.00  0.11  0.00  0.89  0.00  0.00  0.00  0.00  0.00
  YS02163601YS02164001    1.00   0.00  0.06  0.00  0.94  0.00  0.00  0.00  0.00  0.00
  YS02164001YS02001641    1.00   0.00  0.06  0.00  0.94  0.00  0.00  0.00  0.07  0.00
  YS02001641YS02001644    1.00   0.00  0.00  0.00  1.00  0.00  0.00  0.00  0.00  0.00
  YS02001647YS02001649    1.00   0.00  0.13  0.00  0.87  0.00  0.00  0.00  0.01  0.00
  YS02006553YS02006556    1.00   0.00  0.00  0.00  1.00  0.00  0.00  0.00  0.03  0.00
  YS02006556YS02006558    1.00   0.00  0.00  0.00  1.00  0.00  0.00  0.00  0.00  0.00
  YSB6556YSB1171          1.00   0.01  0.06  0.00  0.93  0.00  0.00  0.00  0.00  0.00
  YS02001907YS02006553    1.00   0.00  0.01  0.00  0.99  0.00  0.00  0.00  0.00  0.00
  YS02006558YS02006561    1.00   0.13  0.00  0.00  0.00  0.87  0.00  0.00  0.46  0.00
  YS02001633YS02163601    1.00   0.00  0.00  0.00  1.00  0.00  0.00  0.00  0.21  0.00
  YS02001644YS02001647    1.00   0.00  0.13  0.00  0.87  0.00  0.00  0.00  0.00  0.00
  YS02001745YS02001748    1.00   0.00  0.00  0.00  0.00  0.00  0.00  1.00  0.00  0.00
  YS02001748YS02001751    1.00   0.00  0.00  0.00  0.94  0.06  0.00  0.00  0.86  0.00
  YS02001751YS02001754    1.00   0.00  0.00  0.00  0.86  0.00  0.00  0.14  0.06  0.00
  YS02001754YS02001757    1.00   0.00  0.00  0.00  1.00  0.00  0.00  0.00  0.30  0.00
  YS02001882YS02001884    1.00   0.10  0.01  0.00  0.89  0.00  0.00  0.00  0.00  0.00
  YS02001884YS02001887    1.00   0.03  0.04  0.00  0.93  0.00  0.00  0.00  0.00  0.00
  YS02001890YS02001895    1.00   0.00  0.12  0.00  0.88  0.00  0.00  0.00  0.00  0.00
  YS02001895YS02001898    1.00   0.12  0.00  0.00  0.87  0.00  0.01  0.00  0.00  0.00
  YS02001898YS02001901    1.00   0.11  0.01  0.00  0.88  0.00  0.00  0.00  0.02  0.00
  YS02001901YS02001904    1.00   0.11  0.00  0.00  0.89  0.00  0.00  0.00  0.00  0.00
  YS02001904YS02001907    1.00   0.00  0.11  0.00  0.89  0.00  0.00  0.00  0.00  0.00
  YS02001887YS02001890    1.00   0.00  0.00  0.00  0.99  0.00  0.01  0.00  0.00  0.00
  YS02001652YS02001649    1.00   0.00  0.00  0.00  1.00  0.00  0.00  0.00  0.30  0.00
  YS02001655YS02001652    1.00   0.00  0.00  0.00  0.86  0.00  0.00  0.14  0.06  0.00
  YS02001658YS02001655    1.00   0.00  0.10  0.00  0.84  0.06  0.00  0.00  0.78  0.00
  YS02001661YS02001658    1.00   0.10  0.00  0.00  0.00  0.90  0.00  0.00  0.73  0.00
  YS02001664YS02001661    1.00   0.08  0.00  0.00  0.92  0.00  0.00  0.00  0.86  0.00
  YSB1154YSB6556          1.00   0.07  0.00  0.00  0.93  0.00  0.00  0.00  0.02  0.00
  YSB1174YSB1171          1.00   0.02  0.05  0.00  0.94  0.00  0.00  0.00  0.00  0.00
  YSB1171HS02004479       1.00   0.01  0.00  0.00  0.98  0.00  0.00  0.00  0.14  0.00
  HS02004881HS02006253    1.00   0.02  0.00  0.00  0.03  0.06  0.00  0.89  0.05  0.00
  YS02001793JiankangQianchi    1.00   0.00  0.00  0.00  0.07  0.93  0.00  0.00  0.10  0.00
  YS02001757CaochengTiaoxuchi    1.00   0.00  0.18  0.00  0.82  0.00  0.00  0.00  0.00  0.00
  WSF200WS02003060        1.00   0.00  0.04  0.00  0.95  0.01  0.00  0.00  0.96  0.00
  1                       1.00   0.00  0.00  0.00  0.00  1.00  0.00  0.00  0.42  0.00
  2                       1.00   1.00  0.00  0.00  0.00  0.00  0.00  0.00  0.00  0.00
  3                       1.00   0.96  0.00  0.00  0.00  0.04  0.00  0.00  0.00  0.00
  4                       1.00   1.00  0.00  0.00  0.00  0.00  0.00  0.00  0.00  0.00
  
  
  *************************
  Conduit Surcharge Summary
  *************************
  
  ----------------------------------------------------------------------------
                                                           Hours        Hours 
                         --------- Hours Full --------   Above Full   Capacity
  Conduit                Both Ends  Upstream  Dnstream   Normal Flow   Limited
  ----------------------------------------------------------------------------
  WS02006256WS02006235        3.98      3.99      7.25      0.72         0.01
  WS02006252WS02006251        0.01      0.01      0.01      0.01         0.01
  WS02006249WS02006248        0.01      0.01      0.01      0.05         0.01
  WS02006247WS02006245        0.01      0.01      0.01      0.79         0.01
  WS02006235WS02006234        0.01      0.01      0.01      3.46         0.01
  WS02006231WS02006230        0.01      0.01      0.01      5.12         0.01
  WS02006230WS02006229        0.01      0.01      0.01      5.44         0.01
  WS02006228WS02006109        0.01      0.01      0.01      0.54         0.01
  WS02004404WS02004405        0.01      0.01      0.01      4.81         0.01
  WS02003072WS02003073        0.01      0.01      0.01      1.27         0.01
  YS02001793JiankangQianchi        0.01      0.01      0.51      0.01         0.01
  
  
  ***************
  Pumping Summary
  ***************
  
  ---------------------------------------------------------------------------------------------------------
                                                  Min       Avg       Max     Total     Power    % Time Off
                        Percent   Number of      Flow      Flow      Flow    Volume     Usage    Pump Curve
  Pump                 Utilized   Start-Ups       LPS       LPS       LPS  10^6 ltr     Kw-hr    Low   High
  ---------------------------------------------------------------------------------------------------------
  CC-Pump-1               48.45          12      0.00     53.43    136.97     0.670      2.72    0.0  100.0
  CC-Pump-2               40.32          10      0.00     50.69    136.97     0.527      2.15    0.0  100.0
  JK-Pump-1               82.98           2      0.00     33.30    151.24     0.613     11.43    0.0    0.0
  JK-Pump-2               74.45           7      0.00     41.00    299.87     0.675     12.03    0.0    0.0
  XR-Pump-1               72.33           7      0.00     66.48     95.00     1.311     23.80    0.0    0.0
  XR-Pump-2               85.10           6      0.00     65.75     95.00     1.596     28.33    0.0    0.0
  XR-Pump-3               89.35           5      0.00     75.78     95.00     1.767     31.32    0.0    0.0
  XR-Pump-4               91.47           7      0.00     64.28     95.00     1.767     31.96    0.0    0.0
  

  Analysis begun on:  Tue Dec 21 14:43:46 2021
  Analysis ended on:  Tue Dec 21 14:43:48 2021
  Total elapsed time: 00:00:02