
  EPA STORM WATER MANAGEMENT MODEL - VERSION 5.1 (Build 5.3.0.dev0)
  --------------------------------------------------------------

  WARNING 04: minimum elevation drop used for Conduit WS02004404WS02004405
  WARNING 03: negative offset ignored for Link YS02001904YS02001907
  
  *********************************************************
  NOTE: The summary statistics displayed in this report are
  based on results found at every computational time step,  
  not just on results from each reporting time step.
  *********************************************************
  
  ****************
  Analysis Options
  ****************
  Flow Units ............... LPS
  Process Models:
    Rainfall/Runoff ........ YES
    RDII ................... NO
    Snowmelt ............... NO
    Groundwater ............ NO
    Flow Routing ........... YES
    Ponding Allowed ........ NO
    Water Quality .......... NO
  Infiltration Method ...... HORTON
  Flow Routing Method ...... DYNWAVE
  Surcharge Method ......... EXTRAN
  Starting Date ............ 08/28/2015 08:00:00
  Ending Date .............. 08/28/2015 15:50:00
  Antecedent Dry Days ...... 8.0
  Report Time Step ......... 00:01:00
  Wet Time Step ............ 00:01:00
  Dry Time Step ............ 00:01:00
  Routing Time Step ........ 5.00 sec
  Variable Time Step ....... YES
  Maximum Trials ........... 8
  Number of Threads ........ 4
  Head Tolerance ........... 0.001500 m
  
  
  **************************        Volume         Depth
  Runoff Quantity Continuity     hectare-m            mm
  **************************     ---------       -------
  Total Precipitation ......         1.959         4.290
  Evaporation Loss .........         0.000         0.000
  Infiltration Loss ........         0.484         1.060
  Surface Runoff ...........         0.669         1.465
  Final Storage ............         0.806         1.766
  Continuity Error (%) .....        -0.017
  
  
  **************************        Volume        Volume
  Flow Routing Continuity        hectare-m      10^6 ltr
  **************************     ---------     ---------
  Dry Weather Inflow .......         0.616         6.165
  Wet Weather Inflow .......         0.669         6.687
  Groundwater Inflow .......         0.000         0.000
  RDII Inflow ..............         0.000         0.000
  External Inflow ..........         0.102         1.024
  External Outflow .........         1.476        14.763
  Flooding Loss ............         0.000         0.000
  Evaporation Loss .........         0.000         0.000
  Exfiltration Loss ........         0.000         0.000
  Initial Stored Volume ....         0.076         0.761
  Final Stored Volume ......         0.148         1.475
  Continuity Error (%) .....       -10.948
  
  
  *************************
  Highest Continuity Errors
  *************************
  Node JK-storage (-47.68%)
  Node HS02004842 (36.20%)
  Node YS02001884 (30.38%)
  Node YS02001774 (15.84%)
  Node YSB1171 (10.26%)
  
  
  ***************************
  Time-Step Critical Elements
  ***************************
  Link WS02006252WS02006251 (67.37%)
  Link 3 (23.94%)
  Link WS02006280WS02006229 (2.23%)
  Link WS02006238WS02006235 (2.07%)
  
  
  ********************************
  Highest Flow Instability Indexes
  ********************************
  Link WS02006113WS02006111 (51)
  Link WS02006111WS02006112 (24)
  Link YS02001754YS02001757 (3)
  Link YS02001751YS02001754 (3)
  Link YS02001652YS02001649 (3)
  
  
  *************************
  Routing Time Step Summary
  *************************
  Minimum Time Step           :     0.50 sec
  Average Time Step           :     0.98 sec
  Maximum Time Step           :     5.00 sec
  Percent in Steady State     :    -0.00
  Average Iterations per Step :     2.01
  Percent Not Converging      :     0.01
  
  
  ***************************
  Subcatchment Runoff Summary
  ***************************
  
  ------------------------------------------------------------------------------------------------------------------------------
                            Total      Total      Total      Total     Imperv       Perv      Total       Total     Peak  Runoff
                           Precip      Runon       Evap      Infil     Runoff     Runoff     Runoff      Runoff   Runoff   Coeff
  Subcatchment                 mm         mm         mm         mm         mm         mm         mm    10^6 ltr      LPS
  ------------------------------------------------------------------------------------------------------------------------------
  sub0                       4.29       0.00       0.00       0.30       2.73       0.00       2.73        0.00     0.90   0.635
  sub1                       4.29       0.00       0.00       0.47       2.57       0.00       2.57        0.02     4.48   0.598
  sub2                       4.29       0.00       0.00       1.59       1.80       0.00       1.80        0.02     3.91   0.419
  sub3                       4.29       0.00       0.00       1.59       1.77       0.00       1.77        0.04     7.91   0.412
  sub4                       4.29       0.00       0.00       0.47       2.44       0.00       2.44        0.05     8.75   0.568
  sub5                       4.29       0.00       0.00       0.30       2.68       0.00       2.68        0.03     7.96   0.625
  sub7                       4.29       0.00       0.00       0.39       2.65       0.00       2.65        0.01     2.87   0.618
  sub8                       4.29       0.00       0.00       0.39       2.64       0.00       2.64        0.02     5.03   0.616
  sub9                       4.29       0.00       0.00       0.39       2.64       0.00       2.64        0.01     3.72   0.615
  sub10                      4.29       0.00       0.00       0.34       2.66       0.00       2.66        0.03     7.98   0.620
  sub11                      4.29       0.00       0.00       0.34       2.67       0.00       2.67        0.03     9.48   0.623
  sub12                      4.29       0.00       0.00       0.56       2.54       0.00       2.54        0.02     8.21   0.593
  sub14                      4.29       0.00       0.00       0.39       2.64       0.00       2.64        0.03     7.26   0.615
  sub15                      4.29       0.00       0.00       1.29       2.03       0.00       2.03        0.03     9.82   0.472
  sub16                      4.29       0.00       0.00       1.42       1.96       0.00       1.96        0.02     7.17   0.456
  sub17                      4.29       0.00       0.00       1.37       1.98       0.00       1.98        0.02     5.77   0.462
  sub22                      4.29       0.00       0.00       1.84       1.66       0.00       1.66        0.10    32.51   0.386
  sub23                      4.29       0.00       0.00       1.59       1.83       0.00       1.83        0.09    27.76   0.427
  sub60                      4.29       0.00       0.00       0.51       1.60       0.00       1.60        0.48    40.77   0.372
  sub61                      4.29       0.00       0.00       0.73       1.76       0.00       1.76        0.54    52.21   0.410
  sub62                      4.29       0.00       0.00       0.34       1.87       0.00       1.87        0.58    53.04   0.436
  sub63                      4.29       0.00       0.00       1.24       1.58       0.00       1.58        0.48    49.15   0.369
  sub64                      4.29       0.00       0.00       0.64       1.52       0.00       1.52        0.46    38.65   0.355
  sub65                      4.29       0.00       0.00       0.56       1.54       0.00       1.54        0.47    39.15   0.359
  sub66                      4.29       0.00       0.00       1.24       1.34       0.00       1.34        0.41    35.67   0.313
  sub67                      4.29       0.00       0.00       0.34       2.11       0.00       2.11        0.65    69.44   0.492
  sub68                      4.29       0.00       0.00       0.60       1.88       0.00       1.88        0.58    58.04   0.439
  sub69                      4.29       0.00       0.00       0.64       2.09       0.00       2.09        0.49    59.02   0.487
  sub70                      4.29       2.13       0.00       2.18       2.41       0.00       2.41        0.55    43.29   0.375
  sub71                      4.29       0.00       0.00       0.34       1.77       0.00       1.77        0.42    36.75   0.413
  sub72                      4.29       0.00       0.00       0.30       1.18       0.00       1.18        0.24    16.67   0.274
  sub73                      4.29       2.35       0.00       2.26       2.35       0.00       2.35        0.55    36.86   0.354
  sub74                      4.29       0.00       0.00       3.22       0.64       0.00       0.64        0.25    33.23   0.148
  
  
  ******************
  Node Depth Summary
  ******************
  
  ---------------------------------------------------------------------------------
                                 Average  Maximum  Maximum  Time of Max    Reported
                                   Depth    Depth      HGL   Occurrence   Max Depth
  Node                 Type       Meters   Meters   Meters  days hr:min      Meters
  ---------------------------------------------------------------------------------
  WS02001211           JUNCTION     0.66     0.77     5.61     0  05:50        0.77
  WS02001212           JUNCTION     0.38     0.47     5.54     0  05:50        0.47
  WS02001213           JUNCTION     0.61     0.72     5.48     0  03:14        0.72
  WS02003069           JUNCTION     0.41     0.53     5.12     0  03:16        0.53
  WS02003072           JUNCTION     0.48     0.60     4.97     0  03:16        0.60
  WS02003073           JUNCTION     0.29     0.36     4.43     0  03:17        0.36
  WS02003060           JUNCTION     0.37     0.47     5.40     0  03:15        0.47
  WS02003066           JUNCTION     0.21     0.28     5.83     0  02:50        0.28
  WS02003059           JUNCTION     0.66     0.77     5.46     0  03:14        0.77
  WS02003067           JUNCTION     0.54     0.67     5.99     0  02:50        0.67
  WS02004401           JUNCTION     0.62     0.80     6.80     0  02:46        0.80
  WS02004402           JUNCTION     0.66     0.83     6.79     0  02:47        0.83
  WS02004403           JUNCTION     0.68     0.84     6.77     0  02:47        0.84
  WS02004404           JUNCTION     0.75     0.92     6.77     0  02:46        0.92
  WS02004406           JUNCTION     0.76     0.92     6.75     0  02:46        0.92
  WS02004409           JUNCTION     0.44     0.61     6.38     0  02:49        0.61
  WS02004410           JUNCTION     0.46     0.63     6.35     0  02:49        0.63
  WS02004411           JUNCTION     0.48     0.64     6.32     0  02:49        0.64
  WS02004412           JUNCTION     0.50     0.65     6.29     0  02:50        0.65
  WS02004413           JUNCTION     0.66     0.82     6.29     0  02:50        0.82
  WS02004405           JUNCTION     0.75     0.91     6.76     0  02:46        0.91
  WS02006109           JUNCTION     0.70     0.90     7.52     0  02:41        0.90
  WS02006110           JUNCTION     0.70     0.87     7.46     0  02:42        0.87
  WS02006111           JUNCTION     0.20     0.27     6.98     0  02:41        0.27
  WS02006112           JUNCTION     0.79     0.98     6.86     0  02:46        0.98
  WS02006113           JUNCTION     0.31     0.42     7.32     0  02:42        0.42
  WS02006115           JUNCTION     0.51     0.69     6.83     0  02:46        0.69
  WS02006116           JUNCTION     0.60     0.77     6.81     0  02:46        0.77
  WS02006230           JUNCTION     0.64     0.93     7.68     0  02:41        0.93
  WS02006231           JUNCTION     0.43     0.63     7.75     0  02:41        0.63
  WS02006232           JUNCTION     0.57     0.76     7.80     0  02:41        0.76
  WS02006234           JUNCTION     0.48     0.71     7.87     0  02:41        0.71
  WS02006235           JUNCTION     0.51     0.75     7.91     0  02:41        0.75
  WS02006238           JUNCTION     0.54     0.78     7.92     0  02:41        0.78
  WS02006240           JUNCTION     0.43     0.71     8.00     0  02:41        0.71
  WS02006242           JUNCTION     0.48     0.78     8.05     0  02:40        0.78
  WS02006243           JUNCTION     0.36     0.67     8.09     0  02:40        0.67
  WS02006245           JUNCTION     0.34     0.64     8.12     0  02:40        0.64
  WS02006247           JUNCTION     0.37     0.65     8.15     0  02:40        0.65
  WS02006248           JUNCTION     0.32     0.59     8.17     0  03:10        0.59
  WS02006249           JUNCTION     0.35     0.60     8.20     0  03:10        0.60
  WS02006239           JUNCTION     0.49     0.75     7.96     0  02:41        0.75
  WS02006251           JUNCTION     0.34     0.63     8.30     0  03:10        0.63
  WS02006252           JUNCTION     0.31     0.58     8.83     0  03:00        0.58
  WS02006253           JUNCTION     0.37     0.65     8.30     0  03:10        0.65
  WS02006256           JUNCTION     0.96     1.15     8.08     0  00:00        1.12
  WS02004138           JUNCTION     0.15     0.20     7.45     0  00:00        0.19
  WS02004407           JUNCTION     0.20     0.28     6.59     0  02:46        0.28
  WS02006228           JUNCTION     0.69     0.92     7.57     0  02:41        0.92
  WS02006229           JUNCTION     0.66     0.91     7.61     0  02:41        0.91
  WS02006280           JUNCTION     0.05     0.11     8.39     0  02:22        0.11
  WS02006284           JUNCTION     0.34     0.44     8.84     0  02:22        0.44
  WS02006287           JUNCTION     0.07     0.17     9.12     0  02:22        0.17
  WSF200               JUNCTION     0.19     0.27     5.51     0  02:50        0.27
  HS02004901           JUNCTION     0.10     0.19    10.01     0  02:20        0.19
  HS02004881           JUNCTION     0.00     0.02     9.05     0  02:21        0.02
  HS02004876           JUNCTION     0.03     0.09     9.12     0  02:21        0.09
  HS02004870           JUNCTION     0.01     0.03     9.32     0  02:21        0.03
  HS02004862           JUNCTION     0.01     0.03     9.42     0  02:23        0.03
  HS02004856           JUNCTION     0.07     0.09     9.52     0  02:22        0.09
  HS02004852           JUNCTION     0.00     0.02     9.53     0  02:23        0.02
  HS02004848           JUNCTION     0.00     0.02     9.62     0  02:20        0.02
  HS02004842           JUNCTION     0.32     0.35     9.62     0  02:19        0.35
  HS02004837           JUNCTION     0.02     0.04     9.62     0  02:19        0.04
  HS02004830           JUNCTION     0.03     0.05     9.52     0  02:20        0.05
  HS02004824           JUNCTION     0.02     0.03     9.43     0  02:23        0.03
  HS02004817           JUNCTION     0.41     0.49     9.34     0  02:22        0.49
  HS02004807           JUNCTION     0.10     0.17     9.34     0  02:22        0.17
  HS02004802           JUNCTION     0.14     0.20     9.33     0  02:22        0.20
  HS02004799           JUNCTION     0.09     0.20     9.41     0  02:20        0.20
  HS02004792           JUNCTION     0.02     0.07     9.59     0  02:19        0.07
  HS02004788           JUNCTION     0.02     0.05     9.95     0  02:21        0.05
  HS02004785           JUNCTION     0.03     0.10    10.00     0  02:21        0.10
  HS02004777           JUNCTION     0.12     0.21    10.01     0  02:20        0.21
  HS02004770           JUNCTION     0.09     0.18    10.01     0  02:20        0.18
  HS02004480           JUNCTION     0.05     0.15     9.39     0  02:21        0.15
  HS02004479           JUNCTION     0.09     0.19     9.40     0  02:21        0.19
  HS02004478           JUNCTION     0.04     0.10     9.32     0  02:22        0.10
  YS02001745           JUNCTION     0.06     0.09     7.60     0  03:01        0.09
  YS02001748           JUNCTION     0.08     0.14     7.22     0  04:03        0.14
  YS02001751           JUNCTION     0.22     0.36     7.24     0  04:03        0.36
  YS02001754           JUNCTION     0.47     0.68     7.29     0  04:04        0.67
  YS02001762           JUNCTION     0.66     0.83     7.23     0  04:06        0.83
  YS02001765           JUNCTION     0.61     0.79     7.24     0  04:05        0.79
  YS02001767           JUNCTION     0.58     0.74     7.23     0  04:05        0.74
  YS02001770           JUNCTION     0.57     0.72     7.22     0  04:06        0.72
  YS02001774           JUNCTION     0.64     0.80     7.22     0  04:05        0.80
  YS02001779           JUNCTION     0.40     0.53     7.22     0  04:06        0.53
  YS02001882           JUNCTION     0.23     0.34     7.05     0  02:54        0.34
  YS02001884           JUNCTION     0.32     0.44     7.05     0  02:55        0.44
  YS02001759           JUNCTION     0.69     0.86     7.23     0  04:03        0.86
  YS02001887           JUNCTION     0.40     0.51     7.05     0  02:55        0.51
  YS02001890           JUNCTION     0.43     0.55     7.05     0  02:55        0.55
  YS02001898           JUNCTION     0.20     0.30     7.04     0  02:56        0.30
  YS02001901           JUNCTION     0.32     0.43     7.04     0  02:56        0.43
  YS02001904           JUNCTION     0.29     0.40     7.03     0  02:56        0.40
  YS02001907           JUNCTION     0.62     0.75     7.04     0  02:57        0.75
  YS02001910           JUNCTION     0.41     0.53     7.04     0  02:57        0.53
  YS02001915           JUNCTION     0.21     0.32     7.03     0  02:56        0.32
  YS02001918           JUNCTION     0.06     0.07     7.14     0  03:04        0.07
  YS02001619           JUNCTION     0.18     0.29     7.22     0  03:03        0.29
  YS02001629           JUNCTION     0.52     0.67     7.22     0  04:04        0.67
  YS02001641           JUNCTION     0.63     0.78     7.22     0  04:03        0.78
  YS02001644           JUNCTION     0.63     0.79     7.22     0  04:04        0.79
  YS02001652           JUNCTION     0.48     0.64     7.24     0  04:06        0.64
  YS02001655           JUNCTION     0.25     0.37     7.22     0  04:05        0.37
  YS02001920           JUNCTION     0.15     0.17     7.18     0  03:03        0.17
  YS02001923           JUNCTION     0.05     0.06     7.32     0  03:02        0.06
  YS02001926           JUNCTION     0.11     0.14     7.58     0  03:02        0.14
  YS02001929           JUNCTION     0.05     0.06     7.76     0  03:01        0.06
  YS02001658           JUNCTION     0.06     0.10     7.24     0  02:47        0.10
  YS02001661           JUNCTION     0.13     0.17     7.57     0  02:47        0.17
  YS02001664           JUNCTION     0.05     0.09     8.01     0  02:47        0.09
  YS02001622           JUNCTION     0.20     0.31     7.22     0  03:02        0.31
  YS02001633           JUNCTION     0.61     0.76     7.22     0  04:03        0.76
  YS02001649           JUNCTION     0.67     0.83     7.22     0  04:03        0.83
  YS02001757           JUNCTION     0.79     0.98     7.24     0  04:05        0.98
  YS02001895           JUNCTION     0.19     0.30     7.05     0  02:55        0.30
  YS02001625           JUNCTION     0.48     0.61     7.22     0  03:03        0.61
  YS02163301           JUNCTION     0.55     0.70     7.22     0  04:03        0.70
  YS02163601           JUNCTION     0.67     0.82     7.22     0  04:03        0.82
  YS02164001           JUNCTION     0.61     0.76     7.22     0  03:04        0.76
  YS02001647           JUNCTION     0.46     0.61     7.22     0  04:04        0.61
  YSB1154              JUNCTION     0.23     0.34     9.40     0  02:21        0.34
  YSB6556              JUNCTION     0.12     0.23     9.40     0  02:21        0.23
  YSB1174              JUNCTION     0.18     0.29     9.40     0  02:21        0.29
  YSB1171              JUNCTION     0.38     0.49     9.40     0  02:21        0.49
  YS02006553           JUNCTION     0.63     0.75     7.03     0  02:57        0.75
  YS02006561           JUNCTION     0.11     0.17     6.83     0  02:56        0.17
  YS02006556           JUNCTION     0.60     0.72     7.03     0  02:56        0.72
  YS02006558           JUNCTION     0.64     0.77     7.03     0  02:56        0.77
  YS02001783           JUNCTION     0.18     0.29     6.43     0  02:57        0.29
  YS02001784           JUNCTION     0.22     0.32     6.39     0  02:57        0.32
  YS02001786           JUNCTION     0.18     0.27     6.30     0  02:57        0.27
  YS02001788           JUNCTION     0.13     0.20     6.18     0  02:58        0.20
  YS02001790           JUNCTION     0.16     0.24     5.89     0  02:58        0.24
  YS02001791           JUNCTION     0.11     0.16     5.63     0  02:58        0.16
  YS02001793           JUNCTION     0.07     0.11     4.94     0  02:53        0.11
  WS02004139           JUNCTION     0.60     0.72     5.63     0  05:50        0.72
  WSC                  OUTFALL      0.29     0.36     1.03     0  03:17        0.36
  3                    OUTFALL      0.04     0.13     6.13     0  00:00        0.12
  4                    OUTFALL      0.01     0.10     7.10     0  03:10        0.10
  5                    OUTFALL      0.00     0.00     5.00     0  00:00        0.00
  JK-storage           STORAGE      0.08     3.00     3.80     0  00:00        2.70
  CC-storage           STORAGE      0.05     0.17     7.17     0  03:59        0.17
  XR-storage           STORAGE      1.73     5.00     3.00     0  00:00        4.91
  
  
  *******************
  Node Inflow Summary
  *******************
  
  -------------------------------------------------------------------------------------------------
                                  Maximum  Maximum                  Lateral       Total        Flow
                                  Lateral    Total  Time of Max      Inflow      Inflow     Balance
                                   Inflow   Inflow   Occurrence      Volume      Volume       Error
  Node                 Type           LPS      LPS  days hr:min    10^6 ltr    10^6 ltr     Percent
  -------------------------------------------------------------------------------------------------
  WS02001211           JUNCTION      7.35   387.65     0  01:40       0.207        7.35       0.546
  WS02001212           JUNCTION      0.00   387.61     0  01:40           0        7.31       0.369
  WS02001213           JUNCTION      0.00   387.60     0  01:40           0        7.28       0.346
  WS02003069           JUNCTION      0.32   806.36     0  03:15     0.00902        13.5       0.239
  WS02003072           JUNCTION      0.00   806.27     0  03:16           0        13.5       0.291
  WS02003073           JUNCTION      1.82   808.12     0  03:16      0.0514        13.5       0.331
  WS02003060           JUNCTION     16.53   805.94     0  03:15       0.466        13.5       0.225
  WS02003066           JUNCTION      0.00   463.19     0  02:50           0        5.84       0.069
  WS02003059           JUNCTION      0.00   387.60     0  01:40           0        7.26       0.548
  WS02003067           JUNCTION      0.00   463.12     0  02:50           0        5.85       0.148
  WS02004401           JUNCTION      0.00   470.50     0  02:45           0        6.06       0.329
  WS02004402           JUNCTION      0.00   469.53     0  02:45           0        6.04       0.313
  WS02004403           JUNCTION      0.00   468.94     0  02:45           0        6.03       0.287
  WS02004404           JUNCTION      0.16   468.69     0  02:46     0.00457        6.01       0.219
  WS02004406           JUNCTION      0.00   468.52     0  02:46           0        5.98       0.535
  WS02004409           JUNCTION      0.00   468.04     0  02:46           0        5.94       0.244
  WS02004410           JUNCTION      0.00   465.96     0  02:48           0        5.93       0.278
  WS02004411           JUNCTION      0.00   464.69     0  02:49           0        5.91       0.289
  WS02004412           JUNCTION      0.00   463.88     0  02:49           0         5.9       0.316
  WS02004413           JUNCTION      0.00   463.42     0  02:49           0        5.88       0.475
  WS02004405           JUNCTION      0.04   468.60     0  02:46     0.00107           6       0.327
  WS02006109           JUNCTION      1.23   475.95     0  02:42      0.0347        6.16       0.321
  WS02006110           JUNCTION      0.00   475.96     0  02:42           0        6.14       0.301
  WS02006111           JUNCTION      0.00   491.01     0  02:43           0        6.11       0.064
  WS02006112           JUNCTION      5.77   480.98     0  02:41       0.017        6.13       0.449
  WS02006113           JUNCTION      0.00   476.01     0  02:41           0        6.12       0.141
  WS02006115           JUNCTION      0.00   475.42     0  02:42           0         6.1       0.298
  WS02006116           JUNCTION      0.00   472.08     0  02:45           0        6.08       0.285
  WS02006230           JUNCTION     10.28   394.22     0  04:28        0.29        5.51       0.209
  WS02006231           JUNCTION      0.00   383.96     0  04:22           0        5.23       0.211
  WS02006232           JUNCTION      0.00   384.13     0  04:23           0        5.24       0.285
  WS02006234           JUNCTION      0.00   385.33     0  04:22           0        5.25       0.126
  WS02006235           JUNCTION      0.00   385.50     0  04:22           0         5.3       0.188
  WS02006238           JUNCTION      0.00   311.33     0  03:02           0         3.4       0.197
  WS02006240           JUNCTION      0.00   331.33     0  03:02           0        3.39       0.282
  WS02006242           JUNCTION      0.00   339.92     0  03:01           0        3.39       0.351
  WS02006243           JUNCTION      0.00   346.88     0  03:01           0        3.37      -0.115
  WS02006245           JUNCTION      0.00   350.32     0  03:01           0        3.38       0.256
  WS02006247           JUNCTION      0.00   353.29     0  03:01           0        3.39       0.155
  WS02006248           JUNCTION      0.00   357.15     0  03:01           0        3.39       0.054
  WS02006249           JUNCTION      0.00   417.31     0  02:38           0        3.58       0.272
  WS02006239           JUNCTION      0.00   320.74     0  03:02           0        3.39       0.264
  WS02006251           JUNCTION      0.08   419.97     0  02:38     0.00217        3.61       0.189
  WS02006252           JUNCTION      0.00   400.00     0  02:37           0        3.49       0.011
  WS02006253           JUNCTION      0.90    25.04     0  02:30     0.00221       0.116       2.081
  WS02006256           JUNCTION      0.00   318.66     0  03:25           0        3.08       0.092
  WS02004138           JUNCTION      0.00   380.00     0  00:00           0        7.18       0.089
  WS02004407           JUNCTION      0.00   468.24     0  02:46           0        5.95       0.111
  WS02006228           JUNCTION      0.00   474.71     0  02:42           0        6.14       0.229
  WS02006229           JUNCTION      0.00   474.66     0  02:41           0        6.15       0.184
  WS02006280           JUNCTION      0.00   130.24     0  02:22           0       0.655       0.011
  WS02006284           JUNCTION      0.10   130.24     0  02:22      0.0027       0.656       0.171
  WS02006287           JUNCTION      0.00   130.15     0  02:22           0       0.654       0.106
  WSF200               JUNCTION      0.00   463.18     0  02:50           0        5.84       0.063
  HS02004901           JUNCTION      7.17     7.17     0  02:12      0.0205      0.0206       9.313
  HS02004881           JUNCTION      2.87    23.53     0  02:21     0.00892      0.0925       0.208
  HS02004876           JUNCTION      4.48    20.94     0  02:21       0.017      0.0841       0.619
  HS02004870           JUNCTION      5.03    16.58     0  02:21      0.0169      0.0672       0.157
  HS02004862           JUNCTION      4.11    11.95     0  02:21      0.0224      0.0505       0.326
  HS02004856           JUNCTION      3.72     7.89     0  02:20      0.0127      0.0295       5.114
  HS02004852           JUNCTION      0.00     4.45     0  02:21           0      0.0169       0.283
  HS02004848           JUNCTION      7.91     7.91     0  02:23      0.0398      0.0398       0.105
  HS02004842           JUNCTION      0.00     4.47     0  00:03           0      0.0359      56.738
  HS02004837           JUNCTION     14.33    17.64     0  02:18       0.208       0.231       0.353
  HS02004830           JUNCTION      0.15    17.78     0  02:19     0.00423       0.222       0.559
  HS02004824           JUNCTION      8.80    26.47     0  02:23      0.0523       0.273       0.198
  HS02004817           JUNCTION      0.60    27.07     0  02:23      0.0169       0.289       6.116
  HS02004807           JUNCTION      9.48    35.62     0  02:22       0.031       0.303       1.411
  HS02004802           JUNCTION      0.00    35.67     0  02:23           0       0.299       1.374
  HS02004799           JUNCTION      7.26    80.54     0  02:19      0.0251       0.321       0.702
  HS02004792           JUNCTION     32.79    73.56     0  02:19       0.113       0.296       0.140
  HS02004788           JUNCTION     11.49    42.88     0  02:20      0.0819       0.185       0.211
  HS02004785           JUNCTION      0.15    31.94     0  02:19     0.00423       0.105       0.455
  HS02004777           JUNCTION      0.03    32.37     0  02:18    0.000846       0.105       5.154
  HS02004770           JUNCTION     27.76    33.64     0  02:16      0.0874       0.106       3.002
  HS02004480           JUNCTION      0.00    94.80     0  02:21           0       0.371       0.186
  HS02004479           JUNCTION      0.00    14.61     0  02:22           0      0.0622       1.183
  HS02004478           JUNCTION      0.00   130.15     0  02:22           0       0.655       0.099
  YS02001745           JUNCTION     40.77    40.77     0  03:01       0.484       0.484       0.074
  YS02001748           JUNCTION      0.04    40.81     0  03:01     0.00127       0.485       0.030
  YS02001751           JUNCTION      0.01   115.62     0  04:08     0.00031       0.645       0.237
  YS02001754           JUNCTION      0.26   258.67     0  04:10     0.00733        1.11       0.990
  YS02001762           JUNCTION      0.00    68.52     0  03:17           0       0.621       2.240
  YS02001765           JUNCTION      0.00    91.16     0  04:05           0        0.61       2.415
  YS02001767           JUNCTION      0.54    73.68     0  04:06      0.0151       0.616       3.185
  YS02001770           JUNCTION     53.19    61.10     0  02:32       0.579       0.602       2.764
  YS02001774           JUNCTION      0.00    27.11     0  02:29           0      0.0923      18.820
  YS02001779           JUNCTION      0.01    13.64     0  02:29    0.000141      0.0546      10.306
  YS02001882           JUNCTION      0.00     2.60     0  02:12           0     0.00355      69.199
  YS02001884           JUNCTION      0.00     7.87     0  02:08           0      0.0144      43.643
  YS02001759           JUNCTION     52.25   132.75     0  03:27       0.543        1.14       1.396
  YS02001887           JUNCTION     69.89    69.89     0  02:45       0.663        0.67       0.999
  YS02001890           JUNCTION      0.00    69.49     0  02:49           0       0.651       1.133
  YS02001898           JUNCTION      0.00    69.20     0  02:50           0        0.64       0.284
  YS02001901           JUNCTION      0.00    69.20     0  02:50           0        0.64       0.786
  YS02001904           JUNCTION      0.00    68.93     0  02:53           0        0.64       0.734
  YS02001907           JUNCTION      0.00   124.73     0  02:58           0        1.36       1.582
  YS02001910           JUNCTION      0.00    56.46     0  03:00           0       0.733       1.315
  YS02001915           JUNCTION     36.77    56.19     0  03:01       0.418       0.736       0.538
  YS02001918           JUNCTION      0.00    19.56     0  03:03           0       0.319       0.265
  YS02001619           JUNCTION     35.67    35.67     0  03:00       0.411       0.411       0.134
  YS02001629           JUNCTION      0.00    38.18     0  03:07           0       0.395       1.403
  YS02001641           JUNCTION      0.00    86.31     0  03:13           0       0.838       1.509
  YS02001644           JUNCTION     38.69   116.70     0  03:10       0.464        1.28       1.194
  YS02001652           JUNCTION      0.00    80.58     0  04:12           0       0.539       1.669
  YS02001655           JUNCTION      0.15    49.30     0  02:47     0.00434       0.489       0.662
  YS02001920           JUNCTION      2.87    19.57     0  03:02      0.0809       0.321       0.540
  YS02001923           JUNCTION      0.04    16.71     0  03:02     0.00106        0.24       0.095
  YS02001926           JUNCTION      0.05    16.71     0  03:01     0.00147       0.241       0.690
  YS02001929           JUNCTION     16.67    16.67     0  03:01       0.239       0.239       0.090
  YS02001658           JUNCTION      0.00    49.15     0  02:47           0       0.478       0.039
  YS02001661           JUNCTION      0.00    49.15     0  02:47           0       0.479       0.154
  YS02001664           JUNCTION     49.15    49.15     0  02:47       0.479       0.479       0.031
  YS02001622           JUNCTION      0.00    38.04     0  02:58           0       0.411       0.612
  YS02001633           JUNCTION     39.35    76.90     0  03:11       0.479        0.86       2.139
  YS02001649           JUNCTION      0.00   199.07     0  03:15           0        1.77       1.330
  YS02001757           JUNCTION      0.00   438.94     0  03:27           0        3.66       1.885
  YS02001895           JUNCTION      0.00    69.29     0  02:49           0       0.644       0.499
  YS02001625           JUNCTION      0.00    38.90     0  02:46           0       0.408       3.725
  YS02163301           JUNCTION      0.00    41.96     0  03:20           0       0.395       3.138
  YS02163601           JUNCTION      0.11    82.51     0  03:13      0.0031       0.842       2.325
  YS02164001           JUNCTION      0.00    85.71     0  03:13           0       0.832       1.405
  YS02001647           JUNCTION      0.00   122.24     0  03:12           0        1.26       0.967
  YSB1154              JUNCTION      7.96     7.96     0  02:17      0.0303      0.0318       4.761
  YSB6556              JUNCTION      0.00     7.84     0  02:20           0      0.0328       3.939
  YSB1174              JUNCTION      8.21     8.21     0  02:12      0.0222      0.0232       5.853
  YSB1171              JUNCTION      0.00    14.62     0  02:19           0      0.0616      11.427
  YS02006553           JUNCTION      0.00   124.87     0  03:02           0        1.35       1.030
  YS02006561           JUNCTION      0.00   183.07     0  02:56           0        1.91       0.028
  YS02006556           JUNCTION      0.00   125.02     0  03:02           0        1.35       0.738
  YS02006558           JUNCTION     58.92   183.08     0  02:56       0.604        1.93       0.223
  YS02001783           JUNCTION      0.00   183.06     0  02:56           0        1.91       0.065
  YS02001784           JUNCTION      1.06   184.12     0  02:57      0.0299        1.93       0.109
  YS02001786           JUNCTION      0.06   184.17     0  02:57     0.00159        1.93       0.106
  YS02001788           JUNCTION      0.07   184.23     0  02:58       0.002        1.93       0.059
  YS02001790           JUNCTION      0.15   184.38     0  02:58     0.00437        1.94       0.076
  YS02001791           JUNCTION      0.00   184.38     0  02:58           0        1.94       0.037
  YS02001793           JUNCTION      0.00   184.38     0  02:58           0        1.94       0.016
  WS02004139           JUNCTION      0.32   393.28     0  00:00     0.00905        7.18       0.630
  WSC                  OUTFALL       0.00   808.19     0  03:17           0        13.4       0.000
  3                    OUTFALL       0.00   239.66     0  00:00           0        1.16       0.000
  4                    OUTFALL       0.00   106.41     0  03:10           0       0.179       0.000
  5                    OUTFALL       0.00     0.00     0  00:00           0           0       0.000 ltr
  JK-storage           STORAGE       0.00   186.61     0  02:56           0        2.09     -32.284
  CC-storage           STORAGE       0.00   306.89     0  03:06           0        3.13     -10.252
  XR-storage           STORAGE     266.77   266.77     0  02:53        6.45        7.05      -2.916
  
  
  **********************
  Node Surcharge Summary
  **********************
  
  Surcharging occurs when water rises above the top of the highest conduit.
  ---------------------------------------------------------------------
                                               Max. Height   Min. Depth
                                   Hours       Above Crown    Below Rim
  Node                 Type      Surcharged         Meters       Meters
  ---------------------------------------------------------------------
  WS02006109           JUNCTION        0.85          0.081        1.739
  WS02006232           JUNCTION        0.82          0.065        1.415
  WS02006235           JUNCTION        0.53          0.038        1.252
  WS02006238           JUNCTION        0.66          0.057        1.373
  WS02006242           JUNCTION        0.51          0.049        0.771
  WS02006239           JUNCTION        0.17          0.013        1.277
  WS02006252           JUNCTION        0.92          0.185        0.915
  WS02006228           JUNCTION        0.82          0.094        2.106
  
  
  *********************
  Node Flooding Summary
  *********************
  
  No nodes were flooded.
  
  
  **********************
  Storage Volume Summary
  **********************
  
  --------------------------------------------------------------------------------------------------
                         Average     Avg  Evap Exfil       Maximum     Max    Time of Max    Maximum
                          Volume    Pcnt  Pcnt  Pcnt        Volume    Pcnt     Occurrence    Outflow
  Storage Unit           1000 m3    Full  Loss  Loss       1000 m3    Full    days hr:min        LPS
  --------------------------------------------------------------------------------------------------
  JK-storage               0.004       1     0     0         0.151      52       0  00:00     318.66
  CC-storage               0.134       1     0     0         0.462       3       0  03:59     400.00
  XR-storage               0.208      22     0     0         0.600      65       0  00:00     380.00
  
  
  ***********************
  Outfall Loading Summary
  ***********************
  
  -----------------------------------------------------------
                         Flow       Avg       Max       Total
                         Freq      Flow      Flow      Volume
  Outfall Node           Pcnt       LPS       LPS    10^6 ltr
  -----------------------------------------------------------
  WSC                   99.99    527.49    808.19      13.428
  3                     59.07     98.20    239.66       1.155
  4                     15.55     56.11    106.41       0.179
  5                      0.00      0.00      0.00       0.000
  -----------------------------------------------------------
  System                43.65    681.80   1052.72      14.763
  
  
  ********************
  Link Flow Summary
  ********************
  
  -----------------------------------------------------------------------------
                                 Maximum  Time of Max   Maximum    Max/    Max/
                                  |Flow|   Occurrence   |Veloc|    Full    Full
  Link                 Type          LPS  days hr:min     m/sec    Flow   Depth
  -----------------------------------------------------------------------------
  WS02003066WSF200     CONDUIT    463.18     0  02:50      2.70    0.08    0.21
  WS02006287WS02006284 CONDUIT    130.14     0  02:22      1.38    0.06    0.18
  WS02006284WS02006280 CONDUIT    130.24     0  02:22      1.63    0.05    0.16
  WS02006280WS02006229 CONDUIT    130.24     0  02:22      2.61    0.03    0.11
  WS02006229WS02006228 CONDUIT    474.71     0  02:42      0.94    1.57    1.00
  WS02006256WS02006235 CONDUIT    166.25     0  00:01      2.58    1.76    1.00
  WS02006253WS02006251 CONDUIT     50.21     0  06:39      0.41    0.15    0.90
  WS02006252WS02006251 CONDUIT    400.25     0  03:00      3.19    1.47    1.00
  WS02006251WS02006249 CONDUIT    417.31     0  02:38      1.19    1.20    0.88
  WS02006249WS02006248 CONDUIT    357.15     0  03:01      1.16    1.96    0.84
  WS02006248WS02006247 CONDUIT    353.29     0  03:01      1.13    0.77    0.88
  WS02006247WS02006245 CONDUIT    350.32     0  03:01      1.09    2.78    0.91
  WS02006245WS02006243 CONDUIT    346.88     0  03:01      1.13    1.03    0.93
  WS02006243WS02006242 CONDUIT    339.92     0  03:01      0.99    0.73    0.98
  WS02006242WS02006240 CONDUIT    331.33     0  03:02      0.94    1.32    1.00
  WS02006240WS02006239 CONDUIT    320.74     0  03:02      0.98    1.01    1.00
  WS02006239WS02006238 CONDUIT    311.33     0  03:02      0.89    1.00    1.00
  WS02006238WS02006235 CONDUIT    309.46     0  04:31      1.25    0.69    1.00
  WS02006235WS02006234 CONDUIT    385.33     0  04:22      1.03    4.07    0.99
  WS02006234WS02006232 CONDUIT    384.13     0  04:23      1.13    0.78    1.00
  WS02006232WS02006231 CONDUIT    383.96     0  04:22      1.05    0.80    0.94
  WS02006231WS02006230 CONDUIT    383.94     0  04:28      1.30    5.82    0.84
  WS02006230WS02006229 CONDUIT    394.26     0  04:29      1.02    8.77    1.00
  WS02006228WS02006109 CONDUIT    474.72     0  02:42      0.94    2.07    1.00
  WS02006116WS02004401 CONDUIT    470.50     0  02:45      0.73    0.65    0.78
  WS02006115WS02006116 CONDUIT    472.08     0  02:45      0.84    0.61    0.70
  WS02006113WS02006111 CONDUIT    491.01     0  02:43      2.36    0.59    0.43
  WS02006112WS02006115 CONDUIT    475.42     0  02:42      0.70    0.28    0.83
  WS02006111WS02006112 CONDUIT    478.19     0  02:41      1.35    0.23    0.66
  WS02006110WS02006113 CONDUIT    476.01     0  02:41      1.15    0.43    0.77
  WS02006109WS02006110 CONDUIT    475.96     0  02:42      0.95    0.92    0.98
  WS02004411WS02004412 CONDUIT    463.88     0  02:49      0.86    0.66    0.65
  WS02004401WS02004402 CONDUIT    469.53     0  02:45      0.77    0.56    0.81
  WS02004413WS02003067 CONDUIT    463.12     0  02:50      1.03    0.20    0.56
  WS02004412WS02004413 CONDUIT    463.42     0  02:49      0.75    0.31    0.74
  WS02004410WS02004411 CONDUIT    464.69     0  02:49      0.89    0.63    0.64
  WS02004409WS02004410 CONDUIT    465.96     0  02:48      0.92    0.60    0.62
  WS02004407WS02004409 CONDUIT    468.04     0  02:46      1.42    0.17    0.44
  WS02004406WS02004407 CONDUIT    468.24     0  02:46      0.96    0.21    0.60
  WS02004405WS02004406 CONDUIT    468.52     0  02:46      0.66    0.92    0.91
  WS02004404WS02004405 CONDUIT    468.56     0  02:46      0.84    4.59    0.91
  WS02004403WS02004404 CONDUIT    468.53     0  02:46      0.74    0.34    0.88
  WS02004402WS02004403 CONDUIT    468.94     0  02:45      0.76    0.67    0.83
  WS02004139WS02001211 CONDUIT    380.30     0  01:40      0.90    0.48    0.58
  WS02004138WS02004139 CONDUIT    392.96     0  00:00      3.64    0.08    0.43
  WS02003067WS02003066 CONDUIT    463.19     0  02:50      1.11    0.15    0.40
  WS02001213WS02003059 CONDUIT    387.60     0  01:40      0.90    0.64    0.73
  WS02001212WS02001213 CONDUIT    387.60     0  01:40      1.32    0.60    0.43
  WS02001211WS02001212 CONDUIT    387.61     0  01:40      0.78    0.30    0.62
  WS02003072WS02003073 CONDUIT    806.30     0  03:16      1.64    1.74    0.45
  WS02003069WS02003072 CONDUIT    806.27     0  03:16      1.54    0.39    0.47
  WS02003060WS02003069 CONDUIT    806.04     0  03:15      1.80    0.32    0.42
  WS02003059WS02003060 CONDUIT    387.51     0  01:41      0.95    0.25    0.62
  HS02004901HS02004770 CONDUIT      6.32     0  02:18      0.03    0.02    0.27
  HS02004876HS02004881 CONDUIT     20.95     0  02:21      0.40    0.22    0.07
  HS02004870HS02004876 CONDUIT     16.57     0  02:21      0.28    0.01    0.08
  HS02004842HS02004848 CONDUIT      3.70     0  02:32      0.02    0.00    0.26
  HS02004837HS02004842 CONDUIT      4.47     0  00:03      0.41    0.00    0.28
  HS02004830HS02004837 CONDUIT     17.63     0  02:19      0.39    0.02    0.06
  HS02004824HS02004830 CONDUIT     17.78     0  02:20      0.43    0.02    0.06
  HS02004817HS02004824 CONDUIT     26.47     0  02:23      0.17    0.01    0.37
  HS02004770HS02004777 CONDUIT     32.34     0  02:18      0.17    0.06    0.28
  HS02004799HS02004480 CONDUIT     80.38     0  02:20      0.46    0.10    0.25
  HS02004792HS02004799 CONDUIT     73.51     0  02:20      0.54    0.05    0.20
  HS02004788HS02004792 CONDUIT     42.84     0  02:21      0.70    0.03    0.09
  HS02004785HS02004788 CONDUIT     31.80     0  02:21      0.41    0.24    0.11
  HS02004777HS02004785 CONDUIT     31.79     0  02:19      0.20    0.04    0.23
  HS02004480HS02004478 CONDUIT     94.79     0  02:21      0.79    0.40    0.17
  HS02004479HS02004480 CONDUIT     14.75     0  02:23      0.15    0.01    0.25
  HS02004862HS02004870 CONDUIT     11.91     0  02:22      0.38    0.01    0.04
  HS02004848HS02004852 CONDUIT      4.45     0  02:21      0.25    0.01    0.03
  HS02004856HS02004862 CONDUIT      7.87     0  02:22      0.27    0.01    0.04
  HS02004852HS02004856 CONDUIT      4.41     0  02:23      0.08    0.01    0.08
  HS02004802HS02004478 CONDUIT     35.83     0  02:25      0.24    0.03    0.21
  HS02004478WS02006287 CONDUIT    130.15     0  02:22      1.07    0.04    0.14
  HS02004817HS02004807 CONDUIT     27.30     0  02:26      0.08    0.02    0.47
  HS02004807HS02004802 CONDUIT     35.67     0  02:23      0.20    0.07    0.26
  YS02001759YS02001757 CONDUIT    117.89     0  03:08      0.16    0.08    0.92
  YS02001762YS02001759 CONDUIT     94.73     0  04:25      0.17    0.11    0.83
  YS02001765YS02001762 CONDUIT     68.52     0  03:17      0.22    0.06    0.81
  YS02001770YS02001767 CONDUIT     62.33     0  03:08      0.32    0.25    0.73
  YS02001774YS02001770 CONDUIT     27.11     0  02:29      0.13    0.02    0.74
  YS02001779YS02001774 CONDUIT     13.63     0  02:29      0.08    0.01    0.66
  YS02001649YS02001757 CONDUIT    185.60     0  03:15      0.25    0.11    0.90
  YS02001767YS02001765 CONDUIT     91.16     0  04:05      0.26    0.11    0.75
  YS02006561YS02001783 CONDUIT    183.06     0  02:56      1.55    0.09    0.29
  YS02001783YS02001784 CONDUIT    183.06     0  02:57      1.03    0.25    0.38
  YS02001784YS02001785 CONDUIT    184.11     0  02:57      1.08    0.43    0.37
  YS02001788YS02001790 CONDUIT    184.23     0  02:58      1.63    0.14    0.28
  YS02001790YS02001791 CONDUIT    184.38     0  02:58      1.86    0.20    0.25
  YS02001791YS02001793 CONDUIT    184.38     0  02:58      3.72    0.08    0.17
  YS02001910YS02001907 CONDUIT     56.52     0  03:01      0.49    0.03    0.63
  YS02001786YS02001788 CONDUIT    184.16     0  02:58      1.48    0.35    0.30
  YS02001915YS02001910 CONDUIT     56.46     0  03:00      0.44    0.03    0.42
  YS02001918YS02001915 CONDUIT     19.55     0  03:04      0.44    0.01    0.19
  YS02001923YS02001920 CONDUIT     16.70     0  03:02      0.33    0.01    0.11
  YS02001926YS02001923 CONDUIT     16.67     0  03:02      0.39    0.02    0.10
  YS02001929YS02001926 CONDUIT     16.66     0  03:01      0.41    0.01    0.10
  YS02001920YS02001918 CONDUIT     19.56     0  03:03      0.36    0.02    0.12
  YS02001629YS02163301 CONDUIT     41.96     0  03:20      0.09    0.05    0.68
  YS02001619YS02001622 CONDUIT     38.04     0  02:58      0.57    0.06    0.30
  YS02001622YS02001625 CONDUIT     38.90     0  02:46      0.19    0.02    0.46
  YS02001625YS02001629 CONDUIT     38.18     0  03:07      0.19    0.02    0.45
  YS02163301YS02001633 CONDUIT     39.84     0  03:11      0.10    0.04    0.73
  YS02163601YS02164001 CONDUIT     85.71     0  03:13      0.13    0.08    0.79
  YS02164001YS02001641 CONDUIT     86.31     0  03:13      0.13    0.12    0.77
  YS02001641YS02001644 CONDUIT     80.10     0  03:10      0.13    0.26    0.79
  YS02001647YS02001649 CONDUIT    126.61     0  03:17      0.22    0.07    0.72
  YS02006553YS02006556 CONDUIT    125.02     0  03:02      0.21    0.11    0.72
  YS02006556YS02006558 CONDUIT    125.12     0  03:02      0.20    0.10    0.74
  YSB6556YSB1171       CONDUIT      7.93     0  02:23      0.04    0.01    0.51
  YS02001907YS02006553 CONDUIT    124.87     0  03:02      0.17    0.15    0.81
  YS02006558YS02006561 CONDUIT    183.07     0  02:56      2.00    0.40    0.36
  YS02001633YS02163601 CONDUIT     82.40     0  03:13      0.13    0.09    0.78
  YS02001644YS02001647 CONDUIT    122.24     0  03:12      0.21    0.07    0.70
  YS02001745YS02001748 CONDUIT     40.77     0  03:01      1.22    0.02    0.09
  YS02001748YS02001751 CONDUIT     53.77     0  03:18      0.96    0.03    0.24
  YS02001751YS02001754 CONDUIT    126.59     0  04:03      0.89    0.06    0.46
  YS02001754YS02001757 CONDUIT    190.61     0  04:22      0.33    0.08    0.80
  YS02001882YS02001884 CONDUIT      2.60     0  02:12      0.06    0.00    0.36
  YS02001884YS02001887 CONDUIT      7.87     0  02:08      0.06    0.01    0.45
  YS02001890YS02001895 CONDUIT     69.29     0  02:49      0.22    0.03    0.42
  YS02001895YS02001898 CONDUIT     69.20     0  02:50      0.44    0.12    0.29
  YS02001898YS02001901 CONDUIT     69.20     0  02:50      0.27    0.04    0.36
  YS02001901YS02001904 CONDUIT     68.93     0  02:53      0.22    0.11    0.42
  YS02001904YS02001907 CONDUIT     69.04     0  02:53      0.15    0.02    0.58
  YS02001887YS02001890 CONDUIT     69.49     0  02:49      0.18    0.12    0.51
  YS02001652YS02001649 CONDUIT     76.66     0  03:26      0.30    0.04    0.73
  YS02001655YS02001652 CONDUIT     63.59     0  03:26      0.95    0.03    0.48
  YS02001658YS02001655 CONDUIT     49.15     0  02:47      1.11    0.02    0.23
  YS02001661YS02001658 CONDUIT     49.15     0  02:47      1.24    0.02    0.10
  YS02001664YS02001661 CONDUIT     49.15     0  02:47      0.85    0.02    0.13
  YSB1154YSB6556       CONDUIT      7.84     0  02:20      0.19    0.01    0.40
  YSB1174YSB1171       CONDUIT      7.45     0  02:13      0.04    0.01    0.52
  YSB1171HS02004479    CONDUIT     14.61     0  02:22      0.54    0.01    0.40
  HS02004881HS02006253 CONDUIT     23.53     0  02:21      1.37    0.00    0.23
  YS02001793JiankangQianchi CONDUIT    186.61     0  02:56     11.22    0.01    0.54
  YS02001757CaochengTiaoxuchi CONDUIT    306.89     0  03:06      0.81    0.13    0.57
  WSF200WS02003060     CONDUIT    463.28     0  02:50      1.81    0.10    0.31
  1                    CONDUIT    808.19     0  03:17      3.14    0.28    0.36
  2                    CONDUIT    106.41     0  03:10      4.93    0.25    0.34
  3                    CONDUIT    239.66     0  00:00      8.18    0.38    0.45
  4                    CONDUIT      0.00     0  00:00      0.00    0.00    0.00
  CC-Pump-1            PUMP       200.00     0  02:37              1.00
  CC-Pump-2            PUMP       200.00     0  02:37              1.00
  JK-Pump-1            PUMP       183.77     0  02:53              0.61
  JK-Pump-2            PUMP       300.00     0  00:00              1.00
  XR-Pump-1            PUMP        95.00     0  00:00              1.00
  XR-Pump-2            PUMP        95.00     0  00:00              1.00
  XR-Pump-3            PUMP        95.00     0  00:00              1.00
  XR-Pump-4            PUMP        95.00     0  00:00              1.00
  
  
  ***************************
  Flow Classification Summary
  ***************************
  
  -------------------------------------------------------------------------------------
                      Adjusted    ---------- Fraction of Time in Flow Class ---------- 
                       /Actual         Up    Down  Sub   Sup   Up    Down  Norm  Inlet 
  Conduit               Length    Dry  Dry   Dry   Crit  Crit  Crit  Crit  Ltd   Ctrl  
  -------------------------------------------------------------------------------------
  WS02003066WSF200        1.00   0.03  0.04  0.00  0.00  0.93  0.00  0.00  0.76  0.00
  WS02006287WS02006284    1.00   0.04  0.02  0.00  0.72  0.22  0.00  0.00  0.80  0.00
  WS02006284WS02006280    1.00   0.05  0.00  0.00  0.00  0.00  0.00  0.95  0.00  0.00
  WS02006280WS02006229    1.00   0.05  0.00  0.00  0.00  0.00  0.00  0.95  0.00  0.00
  WS02006229WS02006228    1.00   0.00  0.00  0.00  0.98  0.00  0.00  0.02  0.00  0.00
  WS02006256WS02006235    1.00   0.00  0.00  0.00  1.00  0.00  0.00  0.00  0.00  0.00
  WS02006253WS02006251    1.00   0.03  0.01  0.00  0.95  0.00  0.00  0.00  0.00  0.00
  WS02006252WS02006251    1.00   0.11  0.00  0.00  0.00  0.00  0.89  0.00  0.00  0.00
  WS02006251WS02006249    1.00   0.00  0.00  0.00  1.00  0.00  0.00  0.00  0.34  0.00
  WS02006249WS02006248    1.00   0.00  0.02  0.00  0.84  0.00  0.13  0.00  0.00  0.00
  WS02006248WS02006247    1.00   0.03  0.00  0.00  0.97  0.00  0.00  0.00  0.24  0.00
  WS02006247WS02006245    1.00   0.02  0.00  0.00  0.97  0.00  0.00  0.00  0.00  0.00
  WS02006245WS02006243    1.00   0.01  0.00  0.00  0.93  0.00  0.00  0.05  0.02  0.00
  WS02006243WS02006242    1.00   0.01  0.00  0.00  0.99  0.00  0.00  0.00  0.27  0.00
  WS02006242WS02006240    1.00   0.00  0.00  0.00  1.00  0.00  0.00  0.00  0.00  0.00
  WS02006240WS02006239    1.00   0.00  0.00  0.00  0.95  0.00  0.00  0.05  0.01  0.00
  WS02006239WS02006238    1.00   0.00  0.00  0.00  1.00  0.00  0.00  0.00  0.02  0.00
  WS02006238WS02006235    1.00   0.00  0.00  0.00  1.00  0.00  0.00  0.00  0.00  0.00
  WS02006235WS02006234    1.00   0.00  0.00  0.00  0.94  0.00  0.06  0.00  0.00  0.00
  WS02006234WS02006232    1.00   0.00  0.00  0.00  1.00  0.00  0.00  0.00  0.08  0.00
  WS02006232WS02006231    1.00   0.00  0.00  0.00  0.99  0.00  0.01  0.00  0.00  0.00
  WS02006231WS02006230    1.00   0.00  0.00  0.00  0.27  0.00  0.73  0.00  0.00  0.00
  WS02006230WS02006229    1.00   0.00  0.00  0.00  0.98  0.00  0.00  0.02  0.00  0.00
  WS02006228WS02006109    1.00   0.00  0.00  0.00  1.00  0.00  0.00  0.00  0.00  0.00
  WS02006116WS02004401    1.00   0.03  0.00  0.00  0.97  0.00  0.00  0.00  0.00  0.00
  WS02006115WS02006116    1.00   0.03  0.00  0.00  0.96  0.00  0.00  0.01  0.00  0.00
  WS02006113WS02006111    1.00   0.02  0.00  0.00  0.00  0.98  0.00  0.00  0.14  0.00
  WS02006112WS02006115    1.00   0.03  0.00  0.00  0.97  0.00  0.00  0.00  0.00  0.00
  WS02006111WS02006112    1.00   0.03  0.00  0.00  0.97  0.00  0.00  0.00  0.98  0.00
  WS02006110WS02006113    1.00   0.01  0.01  0.00  0.98  0.00  0.00  0.00  0.00  0.00
  WS02006109WS02006110    1.00   0.00  0.01  0.00  0.98  0.00  0.01  0.00  0.00  0.00
  WS02004411WS02004412    1.00   0.04  0.00  0.00  0.96  0.00  0.00  0.00  0.00  0.00
  WS02004401WS02004402    1.00   0.03  0.00  0.00  0.97  0.00  0.00  0.00  0.00  0.00
  WS02004413WS02003067    1.00   0.05  0.02  0.00  0.00  0.00  0.94  0.00  0.00  0.00
  WS02004412WS02004413    1.00   0.05  0.00  0.00  0.95  0.00  0.00  0.00  0.03  0.00
  WS02004410WS02004411    1.00   0.04  0.00  0.00  0.96  0.00  0.00  0.00  0.04  0.00
  WS02004409WS02004410    1.00   0.04  0.00  0.00  0.96  0.00  0.00  0.00  0.04  0.00
  WS02004407WS02004409    1.00   0.04  0.00  0.00  0.95  0.00  0.00  0.00  0.89  0.00
  WS02004406WS02004407    1.00   0.00  0.04  0.00  0.96  0.00  0.00  0.00  0.00  0.00
  WS02004405WS02004406    1.00   0.00  0.00  0.00  1.00  0.00  0.00  0.00  0.00  0.00
  WS02004404WS02004405    1.00   0.00  0.00  0.00  1.00  0.00  0.00  0.00  0.00  0.00
  WS02004403WS02004404    1.00   0.00  0.03  0.00  0.97  0.00  0.00  0.00  0.01  0.00
  WS02004402WS02004403    1.00   0.03  0.00  0.00  0.97  0.00  0.00  0.00  0.00  0.00
  WS02004139WS02001211    1.00   0.00  0.00  0.00  1.00  0.00  0.00  0.00  0.00  0.00
  WS02004138WS02004139    1.00   0.00  0.00  0.00  0.99  0.01  0.00  0.00  1.00  0.00
  WS02003067WS02003066    1.00   0.06  0.01  0.00  0.93  0.00  0.00  0.00  0.00  0.00
  WS02001213WS02003059    1.00   0.00  0.00  0.00  0.99  0.00  0.00  0.00  0.00  0.00
  WS02001212WS02001213    1.00   0.00  0.00  0.00  0.77  0.00  0.22  0.00  0.00  0.00
  WS02001211WS02001212    1.00   0.00  0.00  0.00  1.00  0.00  0.00  0.00  0.00  0.00
  WS02003072WS02003073    1.00   0.00  0.00  0.00  0.00  0.00  0.00  1.00  0.00  0.00
  WS02003069WS02003072    1.00   0.00  0.00  0.00  0.99  0.01  0.00  0.00  0.24  0.00
  WS02003060WS02003069    1.00   0.00  0.00  0.00  0.98  0.02  0.00  0.00  0.12  0.00
  WS02003059WS02003060    1.00   0.00  0.00  0.00  0.99  0.01  0.00  0.00  0.01  0.00
  HS02004901HS02004770    1.00   0.05  0.00  0.00  0.95  0.00  0.00  0.00  0.03  0.00
  HS02004876HS02004881    1.00   0.03  0.00  0.00  0.97  0.00  0.00  0.00  0.00  0.00
  HS02004870HS02004876    1.00   0.01  0.00  0.00  0.99  0.00  0.00  0.00  0.95  0.00
  HS02004842HS02004848    1.00   0.00  0.05  0.00  0.95  0.00  0.00  0.00  0.71  0.00
  HS02004837HS02004842    1.00   0.00  0.00  0.00  0.99  0.01  0.00  0.00  0.11  0.00
  HS02004830HS02004837    1.00   0.00  0.00  0.00  1.00  0.00  0.00  0.00  0.99  0.00
  HS02004824HS02004830    1.00   0.00  0.00  0.00  1.00  0.00  0.00  0.00  0.00  0.00
  HS02004817HS02004824    1.00   0.00  0.00  0.00  1.00  0.00  0.00  0.00  1.00  0.00
  HS02004770HS02004777    1.00   0.00  0.05  0.00  0.95  0.00  0.00  0.00  0.08  0.00
  HS02004799HS02004480    1.00   0.00  0.03  0.00  0.93  0.00  0.03  0.00  0.00  0.00
  HS02004792HS02004799    1.00   0.00  0.00  0.00  0.98  0.02  0.00  0.00  0.98  0.00
  HS02004788HS02004792    1.00   0.00  0.00  0.00  0.99  0.01  0.00  0.00  0.98  0.00
  HS02004785HS02004788    1.00   0.00  0.00  0.00  1.00  0.00  0.00  0.00  0.00  0.00
  HS02004777HS02004785    1.00   0.00  0.00  0.00  1.00  0.00  0.00  0.00  0.22  0.00
  HS02004480HS02004478    1.00   0.06  0.00  0.00  0.75  0.00  0.00  0.20  0.00  0.00
  HS02004479HS02004480    1.00   0.03  0.00  0.00  0.97  0.00  0.00  0.00  0.16  0.00
  HS02004862HS02004870    1.00   0.00  0.00  0.00  1.00  0.00  0.00  0.00  0.05  0.00
  HS02004848HS02004852    1.00   0.05  0.00  0.00  0.95  0.00  0.00  0.00  0.70  0.00
  HS02004856HS02004862    1.00   0.00  0.08  0.00  0.92  0.00  0.00  0.00  0.73  0.00
  HS02004852HS02004856    1.00   0.05  0.01  0.00  0.94  0.00  0.00  0.00  0.82  0.00
  HS02004802HS02004478    1.00   0.05  0.01  0.00  0.94  0.00  0.00  0.00  0.00  0.00
  HS02004478WS02006287    1.00   0.06  0.00  0.00  0.94  0.00  0.00  0.00  0.81  0.00
  HS02004817HS02004807    1.00   0.00  0.05  0.00  0.95  0.00  0.00  0.00  0.00  0.00
  HS02004807HS02004802    1.00   0.05  0.00  0.00  0.95  0.00  0.00  0.00  0.01  0.00
  YS02001759YS02001757    1.00   0.00  0.00  0.00  1.00  0.00  0.00  0.00  0.17  0.00
  YS02001762YS02001759    1.00   0.00  0.00  0.00  1.00  0.00  0.00  0.00  0.05  0.00
  YS02001765YS02001762    1.00   0.00  0.00  0.00  1.00  0.00  0.00  0.00  0.23  0.00
  YS02001770YS02001767    1.00   0.00  0.00  0.00  1.00  0.00  0.00  0.00  0.00  0.00
  YS02001774YS02001770    1.00   0.00  0.06  0.00  0.94  0.00  0.00  0.00  0.07  0.00
  YS02001779YS02001774    1.00   0.00  0.00  0.00  1.00  0.00  0.00  0.00  0.28  0.00
  YS02001649YS02001757    1.00   0.00  0.00  0.00  1.00  0.00  0.00  0.00  0.19  0.00
  YS02001767YS02001765    1.00   0.00  0.00  0.00  1.00  0.00  0.00  0.00  0.01  0.00
  YS02006561YS02001783    1.00   0.08  0.00  0.00  0.00  0.92  0.00  0.00  0.72  0.00
  YS02001783YS02001784    1.00   0.00  0.08  0.00  0.92  0.00  0.00  0.00  0.08  0.00
  YS02001784YS02001785    1.00   0.00  0.00  0.00  1.00  0.00  0.00  0.00  0.26  0.00
  YS02001788YS02001790    1.00   0.00  0.00  0.00  0.08  0.92  0.00  0.00  0.99  0.00
  YS02001790YS02001791    1.00   0.00  0.00  0.00  0.02  0.98  0.00  0.00  0.38  0.00
  YS02001791YS02001793    1.00   0.00  0.00  0.00  0.00  1.00  0.00  0.00  0.00  0.00
  YS02001910YS02001907    1.00   0.00  0.00  0.00  0.97  0.00  0.00  0.03  0.13  0.00
  YS02001786YS02001788    1.00   0.00  0.00  0.00  0.09  0.91  0.00  0.00  0.00  0.00
  YS02001915YS02001910    1.00   0.00  0.00  0.00  0.99  0.01  0.00  0.00  0.25  0.00
  YS02001918YS02001915    1.00   0.00  0.01  0.00  0.98  0.02  0.00  0.00  0.80  0.00
  YS02001923YS02001920    1.00   0.00  0.00  0.00  1.00  0.00  0.00  0.00  1.00  0.00
  YS02001926YS02001923    1.00   0.00  0.04  0.00  0.00  0.00  0.96  0.00  0.00  0.00
  YS02001929YS02001926    1.00   0.00  0.05  0.00  0.95  0.00  0.00  0.00  0.86  0.00
  YS02001920YS02001918    1.00   0.00  0.01  0.00  0.99  0.00  0.00  0.00  0.00  0.00
  YS02001629YS02163301    1.00   0.07  0.00  0.00  0.93  0.00  0.00  0.00  0.00  0.00
  YS02001619YS02001622    1.00   0.05  0.00  0.00  0.95  0.00  0.00  0.00  0.00  0.00
  YS02001622YS02001625    1.00   0.05  0.00  0.00  0.95  0.00  0.00  0.00  0.14  0.00
  YS02001625YS02001629    1.00   0.05  0.03  0.00  0.89  0.00  0.02  0.00  0.00  0.00
  YS02163301YS02001633    1.00   0.00  0.07  0.00  0.93  0.00  0.00  0.00  0.00  0.00
  YS02163601YS02164001    1.00   0.00  0.04  0.00  0.96  0.00  0.00  0.00  0.00  0.00
  YS02164001YS02001641    1.00   0.01  0.03  0.00  0.96  0.00  0.00  0.00  0.07  0.00
  YS02001641YS02001644    1.00   0.00  0.01  0.00  0.99  0.00  0.00  0.00  0.00  0.00
  YS02001647YS02001649    1.00   0.00  0.08  0.00  0.92  0.00  0.00  0.00  0.01  0.00
  YS02006553YS02006556    1.00   0.02  0.00  0.00  0.98  0.00  0.00  0.00  0.03  0.00
  YS02006556YS02006558    1.00   0.00  0.00  0.00  1.00  0.00  0.00  0.00  0.00  0.00
  YSB6556YSB1171          1.00   0.03  0.02  0.00  0.95  0.00  0.00  0.00  0.00  0.00
  YS02001907YS02006553    1.00   0.00  0.02  0.00  0.97  0.00  0.00  0.00  0.00  0.00
  YS02006558YS02006561    1.00   0.08  0.00  0.00  0.00  0.92  0.00  0.00  0.71  0.00
  YS02001633YS02163601    1.00   0.00  0.01  0.00  0.99  0.00  0.00  0.00  0.20  0.00
  YS02001644YS02001647    1.00   0.00  0.08  0.00  0.92  0.00  0.00  0.00  0.00  0.00
  YS02001745YS02001748    1.00   0.00  0.00  0.00  0.00  0.00  0.00  1.00  0.00  0.00
  YS02001748YS02001751    1.00   0.00  0.00  0.00  0.97  0.03  0.00  0.00  0.66  0.00
  YS02001751YS02001754    1.00   0.00  0.00  0.00  0.91  0.00  0.00  0.09  0.02  0.00
  YS02001754YS02001757    1.00   0.00  0.00  0.00  0.99  0.01  0.00  0.00  0.27  0.00
  YS02001882YS02001884    1.00   0.07  0.00  0.00  0.93  0.00  0.00  0.00  0.00  0.00
  YS02001884YS02001887    1.00   0.04  0.01  0.00  0.95  0.00  0.00  0.00  0.00  0.00
  YS02001890YS02001895    1.00   0.00  0.07  0.00  0.93  0.00  0.00  0.00  0.00  0.00
  YS02001895YS02001898    1.00   0.07  0.00  0.00  0.92  0.00  0.01  0.00  0.00  0.00
  YS02001898YS02001901    1.00   0.07  0.01  0.00  0.92  0.00  0.00  0.00  0.02  0.00
  YS02001901YS02001904    1.00   0.07  0.00  0.00  0.93  0.00  0.00  0.00  0.00  0.00
  YS02001904YS02001907    1.00   0.00  0.07  0.00  0.93  0.00  0.00  0.00  0.00  0.00
  YS02001887YS02001890    1.00   0.00  0.00  0.00  0.97  0.00  0.03  0.00  0.00  0.00
  YS02001652YS02001649    1.00   0.00  0.00  0.00  1.00  0.00  0.00  0.00  0.27  0.00
  YS02001655YS02001652    1.00   0.00  0.00  0.00  0.91  0.00  0.00  0.08  0.02  0.00
  YS02001658YS02001655    1.00   0.00  0.06  0.00  0.90  0.04  0.00  0.00  0.78  0.00
  YS02001661YS02001658    1.00   0.06  0.00  0.00  0.00  0.94  0.00  0.00  0.72  0.00
  YS02001664YS02001661    1.00   0.05  0.00  0.00  0.95  0.00  0.00  0.00  0.86  0.00
  YSB1154YSB6556          1.00   0.05  0.00  0.00  0.95  0.00  0.00  0.00  0.02  0.00
  YSB1174YSB1171          1.00   0.03  0.01  0.00  0.96  0.00  0.00  0.00  0.00  0.00
  YSB1171HS02004479       1.00   0.03  0.00  0.00  0.97  0.00  0.00  0.00  0.13  0.00
  HS02004881HS02006253    1.00   0.03  0.00  0.00  0.69  0.01  0.00  0.26  0.50  0.00
  YS02001793JiankangQianchi    1.00   0.00  0.00  0.00  0.06  0.93  0.00  0.00  0.10  0.00
  YS02001757CaochengTiaoxuchi    1.00   0.00  0.11  0.00  0.89  0.00  0.00  0.00  0.00  0.00
  WSF200WS02003060        1.00   0.00  0.03  0.00  0.82  0.16  0.00  0.00  0.52  0.00
  1                       1.00   0.00  0.00  0.00  0.00  1.00  0.00  0.00  0.44  0.00
  2                       1.00   0.84  0.00  0.00  0.00  0.16  0.00  0.00  0.04  0.00
  3                       1.00   0.41  0.00  0.00  0.00  0.59  0.00  0.00  0.39  0.00
  4                       1.00   1.00  0.00  0.00  0.00  0.00  0.00  0.00  0.00  0.00
  
  
  *************************
  Conduit Surcharge Summary
  *************************
  
  ----------------------------------------------------------------------------
                                                           Hours        Hours 
                         --------- Hours Full --------   Above Full   Capacity
  Conduit                Both Ends  Upstream  Dnstream   Normal Flow   Limited
  ----------------------------------------------------------------------------
  WS02006229WS02006228        0.82      0.88      0.82      2.46         0.82
  WS02006256WS02006235        5.62      5.62      7.20      2.74         0.01
  WS02006252WS02006251        0.58      0.58      0.92      0.84         0.01
  WS02006251WS02006249        0.01      0.01      0.01      0.60         0.01
  WS02006249WS02006248        0.01      0.01      0.01      2.84         0.01
  WS02006247WS02006245        0.01      0.01      0.01      4.02         0.01
  WS02006245WS02006243        0.01      0.01      0.01      0.04         0.01
  WS02006243WS02006242        0.01      0.01      0.51      0.01         0.01
  WS02006242WS02006240        0.01      0.01      0.66      0.92         0.01
  WS02006240WS02006239        0.10      0.10      0.17      0.01         0.01
  WS02006239WS02006238        0.61      0.61      0.66      0.01         0.01
  WS02006238WS02006235        0.61      0.61      0.77      0.01         0.01
  WS02006235WS02006234        0.01      0.01      0.53      5.65         0.01
  WS02006234WS02006232        0.16      0.16      0.82      0.01         0.01
  WS02006232WS02006231        0.01      0.01      0.82      0.01         0.01
  WS02006231WS02006230        0.01      0.01      0.01      5.64         0.01
  WS02006230WS02006229        1.12      1.68      1.12      5.74         1.12
  WS02006228WS02006109        0.85      1.01      0.85      4.51         0.85
  WS02006111WS02006112        0.01      0.01      2.80      0.01         0.01
  WS02006110WS02006113        0.01      0.01      0.94      0.01         0.01
  WS02006109WS02006110        0.01      0.01      1.01      0.01         0.01
  WS02004404WS02004405        0.01      0.01      0.01      5.49         0.01
  WS02003072WS02003073        0.01      0.01      0.01      4.26         0.01
  YS02001793JiankangQianchi        0.01      0.01      0.19      0.01         0.01
  
  
  ***************
  Pumping Summary
  ***************
  
  ---------------------------------------------------------------------------------------------------------
                                                  Min       Avg       Max     Total     Power    % Time Off
                        Percent   Number of      Flow      Flow      Flow    Volume     Usage    Pump Curve
  Pump                 Utilized   Start-Ups       LPS       LPS       LPS  10^6 ltr     Kw-hr    Low   High
  ---------------------------------------------------------------------------------------------------------
  CC-Pump-1               43.11           3      0.00    126.02    200.00     1.503      6.52    0.0  100.0
  CC-Pump-2               53.75           3      0.00    136.89    200.00     1.987      8.58    0.0  100.0
  JK-Pump-1               82.97           6      0.00     78.39    183.77     1.425     27.79    0.0    0.0
  JK-Pump-2               78.72           9      0.00     96.26    300.00     1.655     31.23    0.0    0.0
  XR-Pump-1               85.08           8      0.00     64.51     95.00     1.539     32.25    0.0    0.0
  XR-Pump-2               93.61           6      0.00     64.70     95.00     1.767     36.75    0.0    0.0
  XR-Pump-3               91.48           6      0.00     66.79     95.00     1.767     37.03    0.0    0.0
  XR-Pump-4               93.61           4      0.00     79.58     95.00     2.109     44.26    0.0    0.0
  

  Analysis begun on:  Tue Dec 21 14:48:21 2021
  Analysis ended on:  Tue Dec 21 14:48:24 2021
  Total elapsed time: 00:00:03