
  EPA STORM WATER MANAGEMENT MODEL - VERSION 5.1 (Build 5.3.0.dev0)
  --------------------------------------------------------------

  WARNING 04: minimum elevation drop used for Conduit WS02004404WS02004405
  WARNING 03: negative offset ignored for Link YS02001904YS02001907
  
  *********************************************************
  NOTE: The summary statistics displayed in this report are
  based on results found at every computational time step,  
  not just on results from each reporting time step.
  *********************************************************
  
  ****************
  Analysis Options
  ****************
  Flow Units ............... LPS
  Process Models:
    Rainfall/Runoff ........ YES
    RDII ................... NO
    Snowmelt ............... NO
    Groundwater ............ NO
    Flow Routing ........... YES
    Ponding Allowed ........ NO
    Water Quality .......... NO
  Infiltration Method ...... HORTON
  Flow Routing Method ...... DYNWAVE
  Surcharge Method ......... EXTRAN
  Starting Date ............ 08/28/2015 08:00:00
  Ending Date .............. 08/28/2015 15:50:00
  Antecedent Dry Days ...... 8.0
  Report Time Step ......... 00:01:00
  Wet Time Step ............ 00:01:00
  Dry Time Step ............ 00:01:00
  Routing Time Step ........ 5.00 sec
  Variable Time Step ....... YES
  Maximum Trials ........... 8
  Number of Threads ........ 4
  Head Tolerance ........... 0.001500 m
  
  
  **************************        Volume         Depth
  Runoff Quantity Continuity     hectare-m            mm
  **************************     ---------       -------
  Total Precipitation ......         3.047         6.671
  Evaporation Loss .........         0.000         0.000
  Infiltration Loss ........         0.769         1.684
  Surface Runoff ...........         1.365         2.989
  Final Storage ............         0.913         1.999
  Continuity Error (%) .....        -0.018
  
  
  **************************        Volume        Volume
  Flow Routing Continuity        hectare-m      10^6 ltr
  **************************     ---------     ---------
  Dry Weather Inflow .......         0.616         6.165
  Wet Weather Inflow .......         1.365        13.646
  Groundwater Inflow .......         0.000         0.000
  RDII Inflow ..............         0.000         0.000
  External Inflow ..........         0.102         1.024
  External Outflow .........         1.776        17.762
  Flooding Loss ............         0.061         0.608
  Evaporation Loss .........         0.000         0.000
  Exfiltration Loss ........         0.000         0.000
  Initial Stored Volume ....         0.076         0.761
  Final Stored Volume ......         0.445         4.448
  Continuity Error (%) .....        -5.667
  
  
  *************************
  Highest Continuity Errors
  *************************
  Node JK-storage (-29.51%)
  Node HS02004842 (26.05%)
  Node YS02001774 (21.93%)
  Node YS02001884 (20.53%)
  Node YSB1171 (6.05%)
  
  
  ***************************
  Time-Step Critical Elements
  ***************************
  Link 3 (47.82%)
  Link WS02006252WS02006251 (43.07%)
  Link WS02006238WS02006235 (2.63%)
  Link WS02006280WS02006229 (1.89%)
  
  
  ********************************
  Highest Flow Instability Indexes
  ********************************
  Link WS02006113WS02006111 (41)
  Link WS02006111WS02006112 (22)
  Link YS02006558YS02006561 (16)
  Link YS02164001YS02001641 (13)
  Link YS02001629YS02163301 (13)
  
  
  *************************
  Routing Time Step Summary
  *************************
  Minimum Time Step           :     0.06 sec
  Average Time Step           :     0.89 sec
  Maximum Time Step           :     5.00 sec
  Percent in Steady State     :    -0.00
  Average Iterations per Step :     3.46
  Percent Not Converging      :    17.32
  
  
  ***************************
  Subcatchment Runoff Summary
  ***************************
  
  ------------------------------------------------------------------------------------------------------------------------------
                            Total      Total      Total      Total     Imperv       Perv      Total       Total     Peak  Runoff
                           Precip      Runon       Evap      Infil     Runoff     Runoff     Runoff      Runoff   Runoff   Coeff
  Subcatchment                 mm         mm         mm         mm         mm         mm         mm    10^6 ltr      LPS
  ------------------------------------------------------------------------------------------------------------------------------
  sub0                       6.67       0.00       0.00       0.47       4.94       0.00       4.94        0.00     1.69   0.740
  sub1                       6.67       0.00       0.00       0.73       4.68       0.00       4.68        0.03     8.99   0.702
  sub2                       6.67       0.00       0.00       2.47       3.30       0.00       3.30        0.03     7.97   0.494
  sub3                       6.67       0.00       0.00       2.47       3.26       0.00       3.26        0.07    16.48   0.489
  sub4                       6.67       0.00       0.00       0.73       4.54       0.00       4.54        0.09    18.57   0.681
  sub5                       6.67       0.00       0.00       0.47       4.89       0.00       4.89        0.06    15.99   0.733
  sub7                       6.67       0.00       0.00       0.60       4.82       0.00       4.82        0.02     5.61   0.722
  sub8                       6.67       0.00       0.00       0.60       4.81       0.00       4.81        0.03     9.92   0.721
  sub9                       6.67       0.00       0.00       0.60       4.80       0.00       4.80        0.02     7.36   0.720
  sub10                      6.67       0.00       0.00       0.53       4.85       0.00       4.85        0.05    15.94   0.726
  sub11                      6.67       0.00       0.00       0.53       4.86       0.00       4.86        0.06    18.64   0.729
  sub12                      6.67       0.00       0.00       0.87       4.62       0.00       4.62        0.04    15.69   0.692
  sub14                      6.67       0.00       0.00       0.60       4.80       0.00       4.80        0.05    14.38   0.720
  sub15                      6.67       0.00       0.00       2.00       3.69       0.00       3.69        0.06    19.52   0.553
  sub16                      6.67       0.00       0.00       2.20       3.55       0.00       3.55        0.04    13.83   0.532
  sub17                      6.67       0.00       0.00       2.13       3.60       0.00       3.60        0.03    11.18   0.540
  sub22                      6.67       0.00       0.00       2.87       3.01       0.00       3.01        0.19    63.78   0.452
  sub23                      6.67       0.00       0.00       2.47       3.33       0.00       3.33        0.16    54.27   0.500
  sub60                      6.67       0.00       0.00       0.80       3.35       0.00       3.35        1.02    97.43   0.502
  sub61                      6.67       0.00       0.00       1.13       3.55       0.00       3.55        1.09   121.21   0.532
  sub62                      6.67       0.00       0.00       0.53       3.82       0.00       3.82        1.17   124.17   0.572
  sub63                      6.67       0.00       0.00       1.93       3.15       0.00       3.15        0.95   112.77   0.472
  sub64                      6.67       0.00       0.00       1.00       3.20       0.00       3.20        0.97    92.59   0.480
  sub65                      6.67       0.00       0.00       0.87       3.25       0.00       3.25        1.00    93.99   0.486
  sub66                      6.67       0.00       0.00       1.93       2.79       0.00       2.79        0.85    84.64   0.418
  sub67                      6.67       0.00       0.00       0.53       4.17       0.00       4.17        1.29   158.23   0.624
  sub68                      6.67       0.00       0.00       0.93       3.77       0.00       3.77        1.16   133.74   0.565
  sub69                      6.67       0.00       0.00       1.00       4.04       0.00       4.04        0.94   131.76   0.605
  sub70                      6.67       4.12       0.00       3.67       5.04       0.00       5.04        1.15   109.50   0.467
  sub71                      6.67       0.00       0.00       0.53       3.66       0.00       3.66        0.86    86.93   0.549
  sub72                      6.67       0.00       0.00       0.47       2.64       0.00       2.64        0.54    41.54   0.395
  sub73                      6.67       4.91       0.00       3.94       5.20       0.00       5.20        1.22    94.59   0.449
  sub74                      6.67       0.00       0.00       5.00       1.21       0.00       1.21        0.49    73.30   0.182
  
  
  ******************
  Node Depth Summary
  ******************
  
  ---------------------------------------------------------------------------------
                                 Average  Maximum  Maximum  Time of Max    Reported
                                   Depth    Depth      HGL   Occurrence   Max Depth
  Node                 Type       Meters   Meters   Meters  days hr:min      Meters
  ---------------------------------------------------------------------------------
  WS02001211           JUNCTION     0.65     0.78     5.62     0  02:30        0.78
  WS02001212           JUNCTION     0.38     0.49     5.56     0  02:31        0.49
  WS02001213           JUNCTION     0.61     0.74     5.50     0  02:31        0.74
  WS02003069           JUNCTION     0.43     0.57     5.15     0  02:33        0.57
  WS02003072           JUNCTION     0.50     0.63     5.00     0  02:33        0.63
  WS02003073           JUNCTION     0.30     0.39     4.45     0  02:34        0.39
  WS02003060           JUNCTION     0.38     0.50     5.44     0  02:32        0.50
  WS02003066           JUNCTION     0.23     0.30     5.85     0  02:38        0.30
  WS02003059           JUNCTION     0.67     0.80     5.48     0  02:32        0.80
  WS02003067           JUNCTION     0.57     0.70     6.02     0  02:39        0.70
  WS02004401           JUNCTION     0.67     0.85     6.85     0  02:32        0.85
  WS02004402           JUNCTION     0.70     0.88     6.84     0  02:32        0.88
  WS02004403           JUNCTION     0.72     0.89     6.82     0  02:32        0.89
  WS02004404           JUNCTION     0.80     0.97     6.82     0  02:32        0.96
  WS02004406           JUNCTION     0.80     0.96     6.79     0  02:32        0.96
  WS02004409           JUNCTION     0.49     0.67     6.44     0  02:39        0.67
  WS02004410           JUNCTION     0.51     0.68     6.40     0  02:39        0.68
  WS02004411           JUNCTION     0.52     0.69     6.37     0  02:39        0.69
  WS02004412           JUNCTION     0.54     0.70     6.34     0  02:39        0.70
  WS02004413           JUNCTION     0.70     0.86     6.33     0  02:39        0.86
  WS02004405           JUNCTION     0.79     0.96     6.81     0  02:33        0.96
  WS02006109           JUNCTION     0.75     0.97     7.59     0  02:30        0.97
  WS02006110           JUNCTION     0.74     0.92     7.51     0  02:30        0.92
  WS02006111           JUNCTION     0.22     0.29     6.99     0  02:30        0.29
  WS02006112           JUNCTION     0.84     1.06     6.94     0  02:38        1.05
  WS02006113           JUNCTION     0.34     0.45     7.35     0  02:29        0.45
  WS02006115           JUNCTION     0.56     0.75     6.89     0  02:32        0.75
  WS02006116           JUNCTION     0.64     0.83     6.87     0  02:32        0.83
  WS02006230           JUNCTION     0.72     1.01     7.76     0  02:36        1.01
  WS02006231           JUNCTION     0.48     0.68     7.81     0  02:36        0.68
  WS02006232           JUNCTION     0.62     0.81     7.85     0  02:42        0.81
  WS02006234           JUNCTION     0.54     0.76     7.91     0  02:49        0.76
  WS02006235           JUNCTION     0.57     0.79     7.96     0  02:50        0.79
  WS02006238           JUNCTION     0.60     0.82     7.97     0  02:50        0.82
  WS02006240           JUNCTION     0.50     0.74     8.04     0  02:50        0.74
  WS02006242           JUNCTION     0.55     0.81     8.08     0  02:50        0.81
  WS02006243           JUNCTION     0.43     0.70     8.12     0  02:50        0.70
  WS02006245           JUNCTION     0.41     0.67     8.16     0  02:41        0.67
  WS02006247           JUNCTION     0.43     0.68     8.18     0  02:41        0.68
  WS02006248           JUNCTION     0.38     0.61     8.20     0  02:41        0.61
  WS02006249           JUNCTION     0.41     0.62     8.22     0  02:41        0.62
  WS02006239           JUNCTION     0.55     0.79     8.00     0  02:50        0.79
  WS02006251           JUNCTION     0.40     0.65     8.32     0  02:40        0.65
  WS02006252           JUNCTION     0.36     0.59     8.84     0  06:16        0.59
  WS02006253           JUNCTION     0.43     0.68     8.32     0  02:40        0.68
  WS02006256           JUNCTION     1.04     1.21     8.14     0  02:50        1.21
  WS02004138           JUNCTION     0.15     0.19     7.44     0  02:22        0.19
  WS02004407           JUNCTION     0.22     0.30     6.61     0  02:33        0.30
  WS02006228           JUNCTION     0.75     1.01     7.66     0  02:30        1.01
  WS02006229           JUNCTION     0.72     1.00     7.70     0  02:30        1.00
  WS02006280           JUNCTION     0.06     0.16     8.43     0  02:17        0.16
  WS02006284           JUNCTION     0.35     0.50     8.90     0  02:17        0.50
  WS02006287           JUNCTION     0.08     0.23     9.19     0  02:16        0.23
  WSF200               JUNCTION     0.22     0.31     5.55     0  02:38        0.31
  HS02004901           JUNCTION     0.11     0.25    10.07     0  02:14        0.25
  HS02004881           JUNCTION     0.01     0.03     9.06     0  02:16        0.03
  HS02004876           JUNCTION     0.04     0.11     9.14     0  02:13        0.11
  HS02004870           JUNCTION     0.01     0.05     9.33     0  02:17        0.05
  HS02004862           JUNCTION     0.01     0.05     9.44     0  02:18        0.05
  HS02004856           JUNCTION     0.07     0.11     9.53     0  02:17        0.11
  HS02004852           JUNCTION     0.01     0.03     9.54     0  02:18        0.03
  HS02004848           JUNCTION     0.01     0.03     9.63     0  02:17        0.03
  HS02004842           JUNCTION     0.33     0.36     9.63     0  02:17        0.36
  HS02004837           JUNCTION     0.03     0.05     9.63     0  02:17        0.05
  HS02004830           JUNCTION     0.04     0.07     9.53     0  02:17        0.07
  HS02004824           JUNCTION     0.02     0.04     9.45     0  02:20        0.04
  HS02004817           JUNCTION     0.43     0.54     9.39     0  02:17        0.54
  HS02004807           JUNCTION     0.11     0.22     9.39     0  02:17        0.22
  HS02004802           JUNCTION     0.15     0.25     9.38     0  02:17        0.25
  HS02004799           JUNCTION     0.10     0.28     9.49     0  02:15        0.28
  HS02004792           JUNCTION     0.03     0.11     9.63     0  02:14        0.11
  HS02004788           JUNCTION     0.02     0.08     9.98     0  02:15        0.08
  HS02004785           JUNCTION     0.04     0.15    10.05     0  02:15        0.15
  HS02004777           JUNCTION     0.14     0.27    10.07     0  02:14        0.27
  HS02004770           JUNCTION     0.11     0.24    10.07     0  02:14        0.24
  HS02004480           JUNCTION     0.07     0.22     9.46     0  02:15        0.22
  HS02004479           JUNCTION     0.10     0.26     9.46     0  02:15        0.26
  HS02004478           JUNCTION     0.05     0.14     9.37     0  02:16        0.14
  YS02001745           JUNCTION     0.24     0.47     7.98     0  06:02        0.46
  YS02001748           JUNCTION     0.61     0.89     7.97     0  05:46        0.89
  YS02001751           JUNCTION     0.79     1.73     8.60     0  04:28        1.09
  YS02001754           JUNCTION     1.04     1.69     8.30     0  04:28        1.36
  YS02001762           JUNCTION     1.24     1.64     8.04     0  04:14        1.57
  YS02001765           JUNCTION     1.19     1.59     8.04     0  04:14        1.54
  YS02001767           JUNCTION     1.15     1.60     8.09     0  03:42        1.52
  YS02001770           JUNCTION     1.15     1.68     8.18     0  03:42        1.53
  YS02001774           JUNCTION     1.22     1.78     8.20     0  03:42        1.61
  YS02001779           JUNCTION     0.97     1.53     8.21     0  03:42        1.35
  YS02001882           JUNCTION     0.31     0.52     7.23     0  02:52        0.52
  YS02001884           JUNCTION     0.41     0.62     7.23     0  02:52        0.62
  YS02001759           JUNCTION     1.27     1.66     8.03     0  04:14        1.60
  YS02001887           JUNCTION     0.48     0.70     7.23     0  02:52        0.70
  YS02001890           JUNCTION     0.51     0.73     7.23     0  02:52        0.73
  YS02001898           JUNCTION     0.29     0.48     7.22     0  02:53        0.48
  YS02001901           JUNCTION     0.40     0.61     7.21     0  02:53        0.61
  YS02001904           JUNCTION     0.38     0.58     7.21     0  02:53        0.58
  YS02001907           JUNCTION     0.71     0.92     7.21     0  02:54        0.92
  YS02001910           JUNCTION     0.50     0.71     7.21     0  02:52        0.71
  YS02001915           JUNCTION     0.30     0.49     7.21     0  02:53        0.49
  YS02001918           JUNCTION     0.09     0.14     7.21     0  02:52        0.14
  YS02001619           JUNCTION     0.75     1.05     7.98     0  06:01        1.04
  YS02001629           JUNCTION     1.10     1.42     7.97     0  05:46        1.41
  YS02001641           JUNCTION     1.21     1.55     7.98     0  04:05        1.51
  YS02001644           JUNCTION     1.21     1.61     8.04     0  04:05        1.52
  YS02001652           JUNCTION     1.05     1.77     8.36     0  04:05        1.41
  YS02001655           JUNCTION     0.82     1.74     8.59     0  04:03        1.31
  YS02001920           JUNCTION     0.19     0.23     7.24     0  02:58        0.23
  YS02001923           JUNCTION     0.07     0.09     7.35     0  03:01        0.09
  YS02001926           JUNCTION     0.15     0.19     7.64     0  03:01        0.19
  YS02001929           JUNCTION     0.07     0.10     7.79     0  03:01        0.10
  YS02001658           JUNCTION     0.56     0.83     7.97     0  05:57        0.81
  YS02001661           JUNCTION     0.34     0.55     7.96     0  05:58        0.55
  YS02001664           JUNCTION     0.08     0.13     8.05     0  02:44        0.13
  YS02001622           JUNCTION     0.78     1.07     7.98     0  05:26        1.06
  YS02001633           JUNCTION     1.19     1.51     7.97     0  05:46        1.50
  YS02001649           JUNCTION     1.25     1.73     8.12     0  04:05        1.56
  YS02001757           JUNCTION     1.37     1.78     8.04     0  04:28        1.69
  YS02001895           JUNCTION     0.28     0.48     7.22     0  02:53        0.48
  YS02001625           JUNCTION     1.05     1.36     7.96     0  05:46        1.34
  YS02163301           JUNCTION     1.13     1.45     7.97     0  05:46        1.44
  YS02163601           JUNCTION     1.25     1.58     7.98     0  05:46        1.56
  YS02164001           JUNCTION     1.19     1.53     7.99     0  04:05        1.49
  YS02001647           JUNCTION     1.04     1.45     8.06     0  04:03        1.34
  YSB1154              JUNCTION     0.24     0.41     9.46     0  02:15        0.41
  YSB6556              JUNCTION     0.14     0.29     9.46     0  02:15        0.29
  YSB1174              JUNCTION     0.19     0.35     9.46     0  02:15        0.35
  YSB1171              JUNCTION     0.39     0.56     9.46     0  02:15        0.56
  YS02006553           JUNCTION     0.71     0.93     7.21     0  02:53        0.93
  YS02006561           JUNCTION     0.15     0.26     6.92     0  02:52        0.26
  YS02006556           JUNCTION     0.69     0.90     7.21     0  02:53        0.89
  YS02006558           JUNCTION     0.73     0.94     7.21     0  02:53        0.94
  YS02001783           JUNCTION     0.27     0.46     6.60     0  02:53        0.46
  YS02001784           JUNCTION     0.30     0.48     6.55     0  02:54        0.48
  YS02001786           JUNCTION     0.26     0.41     6.44     0  02:59        0.41
  YS02001788           JUNCTION     0.19     0.31     6.29     0  03:00        0.31
  YS02001790           JUNCTION     0.23     0.38     6.03     0  02:55        0.38
  YS02001791           JUNCTION     0.15     0.24     5.71     0  03:00        0.24
  YS02001793           JUNCTION     0.09     0.16     4.99     0  02:48        0.16
  WS02004139           JUNCTION     0.59     0.72     5.63     0  02:30        0.72
  WSC                  OUTFALL      0.30     0.39     1.06     0  02:34        0.39
  3                    OUTFALL      0.09     0.21     6.21     0  02:50        0.21
  4                    OUTFALL      0.03     0.12     7.12     0  02:41        0.12
  5                    OUTFALL      0.00     0.00     5.00     0  00:00        0.00
  JK-storage           STORAGE      0.41     4.15     4.95     0  03:16        4.14
  CC-storage           STORAGE      0.61     0.93     7.93     0  05:49        0.93
  XR-storage           STORAGE      6.53     7.72     5.72     0  03:43        7.72
  
  
  *******************
  Node Inflow Summary
  *******************
  
  -------------------------------------------------------------------------------------------------
                                  Maximum  Maximum                  Lateral       Total        Flow
                                  Lateral    Total  Time of Max      Inflow      Inflow     Balance
                                   Inflow   Inflow   Occurrence      Volume      Volume       Error
  Node                 Type           LPS      LPS  days hr:min    10^6 ltr    10^6 ltr     Percent
  -------------------------------------------------------------------------------------------------
  WS02001211           JUNCTION      7.35   385.08     0  02:28       0.207        6.66       0.365
  WS02001212           JUNCTION      0.00   381.90     0  02:27           0        6.63       0.222
  WS02001213           JUNCTION      0.00   378.66     0  02:27           0        6.62       0.269
  WS02003069           JUNCTION      0.32   905.70     0  02:33     0.00902        14.1       0.194
  WS02003072           JUNCTION      0.00   905.18     0  02:33           0          14       0.243
  WS02003073           JUNCTION      1.82   906.76     0  02:34      0.0514          14       0.271
  WS02003060           JUNCTION     16.53   905.35     0  02:32       0.466        14.1       0.184
  WS02003066           JUNCTION      0.00   538.67     0  02:39           0        7.05       0.073
  WS02003059           JUNCTION      0.00   378.54     0  07:22           0         6.6       0.509
  WS02003067           JUNCTION      0.00   538.63     0  02:39           0        7.06       0.148
  WS02004401           JUNCTION      0.00   540.93     0  02:32           0        7.33       0.331
  WS02004402           JUNCTION      0.00   540.70     0  02:32           0         7.3       0.309
  WS02004403           JUNCTION      0.00   540.18     0  02:32           0        7.28       0.277
  WS02004404           JUNCTION      0.16   540.39     0  02:33     0.00457        7.26       0.205
  WS02004406           JUNCTION      0.00   540.44     0  02:32           0        7.23       0.500
  WS02004409           JUNCTION      0.00   540.01     0  02:33           0        7.18       0.276
  WS02004410           JUNCTION      0.00   538.90     0  02:33           0        7.16       0.305
  WS02004411           JUNCTION      0.00   538.70     0  02:38           0        7.14       0.309
  WS02004412           JUNCTION      0.00   538.73     0  02:38           0        7.12       0.327
  WS02004413           JUNCTION      0.00   538.64     0  02:39           0         7.1       0.474
  WS02004405           JUNCTION      0.04   540.25     0  02:32     0.00107        7.25       0.306
  WS02006109           JUNCTION      1.23   535.15     0  02:29      0.0347        7.43       0.294
  WS02006110           JUNCTION      0.00   535.14     0  02:29           0        7.41       0.293
  WS02006111           JUNCTION      0.00   556.62     0  02:30           0        7.38       0.072
  WS02006112           JUNCTION     11.18   547.60     0  02:29      0.0309         7.4       0.429
  WS02006113           JUNCTION      0.00   535.66     0  02:30           0        7.39       0.159
  WS02006115           JUNCTION      0.00   548.23     0  02:31           0        7.37       0.323
  WS02006116           JUNCTION      0.00   542.42     0  02:31           0        7.35       0.303
  WS02006230           JUNCTION     10.28   400.84     0  04:18        0.29        6.42       0.240
  WS02006231           JUNCTION      0.00   390.79     0  04:18           0        6.14       0.236
  WS02006232           JUNCTION      0.00   390.78     0  04:18           0        6.16       0.286
  WS02006234           JUNCTION      0.00   390.96     0  04:18           0        6.17       0.167
  WS02006235           JUNCTION      0.00   390.98     0  04:18           0        6.21       0.199
  WS02006238           JUNCTION      0.00   317.24     0  07:30           0        4.26       0.213
  WS02006240           JUNCTION      0.00   317.78     0  07:22           0        4.26       0.373
  WS02006242           JUNCTION      0.00   330.16     0  07:21           0        4.27       0.438
  WS02006243           JUNCTION      0.00   341.21     0  07:21           0        4.26       0.023
  WS02006245           JUNCTION      0.00   346.49     0  07:21           0        4.27       0.343
  WS02006247           JUNCTION      0.00   351.43     0  07:21           0        4.28       0.252
  WS02006248           JUNCTION      0.00   356.10     0  07:21           0        4.29       0.149
  WS02006249           JUNCTION      0.00   433.27     0  02:40           0        4.83       0.349
  WS02006239           JUNCTION      0.00   316.89     0  07:30           0        4.26       0.347
  WS02006251           JUNCTION      0.08   433.39     0  02:40     0.00217        4.86       0.286
  WS02006252           JUNCTION      0.00   400.00     0  02:40           0        4.67       0.011
  WS02006253           JUNCTION      1.69    50.39     0  02:16       0.004         0.2       4.315
  WS02006256           JUNCTION      0.00   600.00     0  03:20           0        5.22       0.062
  WS02004138           JUNCTION      0.00   380.00     0  02:20           0        6.47       0.044
  WS02004407           JUNCTION      0.00   540.07     0  02:33           0        7.19       0.123
  WS02006228           JUNCTION      0.00   533.93     0  02:29           0        7.41       0.210
  WS02006229           JUNCTION      0.00   534.00     0  02:30           0        7.43       0.189
  WS02006280           JUNCTION      0.00   254.26     0  02:17           0        1.03       0.007
  WS02006284           JUNCTION      0.10   254.25     0  02:16      0.0027        1.03       0.105
  WS02006287           JUNCTION      0.00   254.12     0  02:16           0        1.03       0.071
  WSF200               JUNCTION      0.00   538.73     0  02:39           0        7.05       0.076
  HS02004901           JUNCTION     13.83    13.83     0  02:09      0.0371      0.0373       4.944
  HS02004881           JUNCTION      5.61    49.06     0  02:16      0.0162       0.172       0.172
  HS02004876           JUNCTION      8.99    43.76     0  02:16      0.0311       0.156       0.342
  HS02004870           JUNCTION      9.92    34.94     0  02:16      0.0307       0.125       0.085
  HS02004862           JUNCTION      8.17    25.65     0  02:17      0.0363      0.0944       0.180
  HS02004856           JUNCTION      7.36    17.53     0  02:16      0.0231      0.0595       2.474
  HS02004852           JUNCTION      0.00    10.62     0  02:17           0      0.0365       0.142
  HS02004848           JUNCTION     16.48    16.48     0  02:20      0.0734      0.0734       0.060
  HS02004842           JUNCTION      0.00     6.44     0  02:29           0      0.0499      35.222
  HS02004837           JUNCTION     22.29    27.65     0  02:16       0.232       0.269       0.302
  HS02004830           JUNCTION      0.15    27.78     0  02:17     0.00423        0.26       0.477
  HS02004824           JUNCTION     18.62    46.16     0  02:20      0.0961       0.355       0.152
  HS02004817           JUNCTION      0.60    46.76     0  02:20      0.0169       0.371       4.704
  HS02004807           JUNCTION     18.64    63.78     0  02:18      0.0565       0.411       1.040
  HS02004802           JUNCTION      0.00    64.20     0  02:19           0       0.407       1.009
  HS02004799           JUNCTION     14.38   162.40     0  02:14      0.0457       0.544       0.420
  HS02004792           JUNCTION     64.06   148.27     0  02:14       0.198       0.499       0.082
  HS02004788           JUNCTION     21.19    86.26     0  02:15       0.111       0.302       0.130
  HS02004785           JUNCTION      0.15    65.39     0  02:14     0.00423       0.193       0.251
  HS02004777           JUNCTION      0.03    65.71     0  02:13    0.000846       0.194       2.749
  HS02004770           JUNCTION     54.27    66.85     0  02:11       0.159       0.194       1.618
  HS02004480           JUNCTION      0.00   191.61     0  02:15           0       0.637       0.117
  HS02004479           JUNCTION      0.00    29.76     0  02:16           0       0.105       0.699
  HS02004478           JUNCTION      0.00   254.09     0  02:16           0        1.03       0.060
  YS02001745           JUNCTION     97.44   146.45     0  04:27        1.01        1.12       0.198
  YS02001748           JUNCTION      0.04   212.16     0  04:13     0.00127        1.16       0.906
  YS02001751           JUNCTION      0.01   239.90     0  03:38     0.00031        1.05       1.573
  YS02001754           JUNCTION      0.26   153.34     0  02:58     0.00733       0.995       2.321
  YS02001762           JUNCTION      0.00   135.05     0  03:01           0        1.11       1.931
  YS02001765           JUNCTION      0.00   143.60     0  02:33           0        1.11       2.211
  YS02001767           JUNCTION      0.54   144.73     0  02:40      0.0151        1.13       3.245
  YS02001770           JUNCTION    124.32   149.79     0  03:00        1.18        1.22       2.635
  YS02001774           JUNCTION      0.00    49.39     0  02:13           0       0.114      28.085
  YS02001779           JUNCTION      0.01    46.35     0  03:35    0.000141      0.0506      35.919
  YS02001882           JUNCTION      0.00     4.74     0  02:05           0     0.00625      39.592
  YS02001884           JUNCTION      0.00    13.70     0  02:05           0      0.0247      25.831
  YS02001759           JUNCTION    121.25   256.30     0  02:40         1.1        2.17       1.057
  YS02001887           JUNCTION    158.68   158.83     0  02:46         1.3        1.31       0.566
  YS02001890           JUNCTION      0.00   158.50     0  02:45           0        1.28       0.633
  YS02001898           JUNCTION      0.00   157.64     0  02:45           0        1.27       0.187
  YS02001901           JUNCTION      0.00   157.55     0  02:46           0        1.27       0.453
  YS02001904           JUNCTION      0.00   157.42     0  02:46           0        1.27       0.421
  YS02001907           JUNCTION      0.00   289.37     0  02:57           0        2.73       0.826
  YS02001910           JUNCTION      0.00   133.77     0  03:03           0        1.47       0.712
  YS02001915           JUNCTION     86.94   132.16     0  03:00       0.865        1.48       0.326
  YS02001918           JUNCTION      0.00    44.68     0  03:04           0       0.615       0.205
  YS02001619           JUNCTION     84.64    93.64     0  03:54       0.854       0.857       1.016
  YS02001629           JUNCTION      0.00   198.72     0  03:53           0       0.819       2.875
  YS02001641           JUNCTION      0.00   182.70     0  03:03           0        1.69       1.261
  YS02001644           JUNCTION     92.63   275.18     0  03:03       0.974        2.64       0.997
  YS02001652           JUNCTION      0.00   186.18     0  03:02           0       0.932       2.382
  YS02001655           JUNCTION      0.15   320.17     0  03:44     0.00434       0.988       1.896
  YS02001920           JUNCTION      2.87    44.40     0  03:01      0.0809       0.617       0.357
  YS02001923           JUNCTION      0.04    41.53     0  03:01     0.00106       0.537       0.063
  YS02001926           JUNCTION      0.05    41.57     0  03:01     0.00147       0.538       0.445
  YS02001929           JUNCTION     41.54    41.54     0  03:01       0.537       0.537       0.062
  YS02001658           JUNCTION      0.00   267.42     0  04:00           0        1.12       1.006
  YS02001661           JUNCTION      0.00   233.72     0  03:59           0        1.09       0.291
  YS02001664           JUNCTION    112.77   112.77     0  02:44       0.954       0.954       0.007
  YS02001622           JUNCTION      0.00   136.22     0  03:55           0       0.882       2.821
  YS02001633           JUNCTION     94.19   186.79     0  02:37           1        1.75       1.862
  YS02001649           JUNCTION      0.00   397.32     0  03:04           0        3.48       1.075
  YS02001757           JUNCTION      0.00   712.13     0  03:01           0        6.52       1.429
  YS02001895           JUNCTION      0.00   158.09     0  02:45           0        1.28       0.309
  YS02001625           JUNCTION      0.00   200.55     0  03:53           0       0.886       4.511
  YS02163301           JUNCTION      0.00    96.32     0  02:43           0       0.776       3.163
  YS02163601           JUNCTION      0.11   183.13     0  02:56      0.0031        1.71       1.788
  YS02164001           JUNCTION      0.00   181.18     0  02:56           0        1.69       1.193
  YS02001647           JUNCTION      0.00   276.25     0  03:03           0         2.6       1.038
  YSB1154              JUNCTION     15.99    15.99     0  02:14      0.0554      0.0567       2.612
  YSB6556              JUNCTION      0.00    15.99     0  02:16           0      0.0577       2.210
  YSB1174              JUNCTION     15.69    15.69     0  02:09      0.0403      0.0413       3.206
  YSB1171              JUNCTION      0.00    29.76     0  02:15           0       0.105       6.437
  YS02006553           JUNCTION      0.00   289.43     0  02:59           0        2.72       0.535
  YS02006561           JUNCTION      0.00   441.28     0  02:53           0        3.85       0.012
  YS02006556           JUNCTION      0.00   289.31     0  03:03           0        2.73       0.387
  YS02006558           JUNCTION    134.62   422.89     0  02:56        1.18        3.88       0.125
  YS02001783           JUNCTION      0.00   420.65     0  02:57           0        3.85       0.044
  YS02001784           JUNCTION      1.06   420.99     0  02:53      0.0299        3.88       0.070
  YS02001786           JUNCTION      0.06   420.94     0  02:54     0.00159        3.88       0.068
  YS02001788           JUNCTION      0.07   420.96     0  02:54       0.002        3.88       0.040
  YS02001790           JUNCTION      0.15   421.15     0  03:00     0.00437        3.88       0.050
  YS02001791           JUNCTION      0.00   421.07     0  02:55           0        3.88       0.025
  YS02001793           JUNCTION      0.00   421.09     0  02:55           0        3.88       0.008
  WS02004139           JUNCTION      0.32   380.32     0  02:22     0.00905        6.48       0.401
  WSC                  OUTFALL       0.00   906.53     0  02:34           0          14       0.000
  3                    OUTFALL       0.00   515.02     0  02:50           0        3.23       0.000
  4                    OUTFALL       0.00   148.65     0  02:41           0       0.519       0.000
  5                    OUTFALL       0.00     0.00     0  00:00           0           0       0.000 ltr
  JK-storage           STORAGE       0.00   424.03     0  02:58           0        4.03     -22.787
  CC-storage           STORAGE       0.00   712.22     0  02:55           0        6.42       0.428
  XR-storage           STORAGE     357.32   357.32     0  02:56        7.35        7.95      -0.001
  
  
  **********************
  Node Surcharge Summary
  **********************
  
  Surcharging occurs when water rises above the top of the highest conduit.
  ---------------------------------------------------------------------
                                               Max. Height   Min. Depth
                                   Hours       Above Crown    Below Rim
  Node                 Type      Surcharged         Meters       Meters
  ---------------------------------------------------------------------
  WS02006109           JUNCTION        1.93          0.149        1.671
  WS02006110           JUNCTION        0.35          0.011        1.839
  WS02006112           JUNCTION        0.59          0.060        1.620
  WS02006232           JUNCTION        1.98          0.114        1.366
  WS02006234           JUNCTION        0.46          0.036        1.204
  WS02006235           JUNCTION        1.49          0.084        1.206
  WS02006238           JUNCTION        1.76          0.102        1.328
  WS02006240           JUNCTION        0.35          0.034        1.356
  WS02006242           JUNCTION        1.48          0.080        0.740
  WS02006239           JUNCTION        0.58          0.053        1.237
  WS02006252           JUNCTION        2.06          0.193        0.907
  WS02006228           JUNCTION        1.85          0.177        2.023
  YS02001751           JUNCTION        1.14          0.726        0.474
  YS02001754           JUNCTION        4.17          0.640        0.510
  YS02001762           JUNCTION        5.32          0.636        0.514
  YS02001765           JUNCTION        5.27          0.593        0.507
  YS02001767           JUNCTION        5.22          0.605        0.425
  YS02001770           JUNCTION        5.13          0.655        0.265
  YS02001774           JUNCTION        5.31          0.779        0.271
  YS02001779           JUNCTION        3.97          0.529        0.151
  YS02001759           JUNCTION        5.35          0.662        0.548
  YS02001619           JUNCTION        0.38          0.049        0.561
  YS02001629           JUNCTION        0.38          0.038        0.432
  YS02001641           JUNCTION        5.30          0.547        0.553
  YS02001644           JUNCTION        5.30          0.609        0.311
  YS02001652           JUNCTION        4.41          0.737        0.393
  YS02001655           JUNCTION        1.55          0.739        0.461
  YS02001622           JUNCTION        0.97          0.071        0.549
  YS02001633           JUNCTION        5.26          0.493        0.567
  YS02001649           JUNCTION        5.33          0.729        0.321
  YS02001757           JUNCTION        5.43          0.783        0.427
  YS02001625           JUNCTION        4.63          0.357        0.423
  YS02163301           JUNCTION        5.19          0.453        0.577
  YS02163601           JUNCTION        5.33          0.577        0.503
  YS02164001           JUNCTION        5.27          0.534        0.566
  YS02001647           JUNCTION        4.47          0.450        0.450
  
  
  *********************
  Node Flooding Summary
  *********************
  
  Flooding refers to all water that overflows a node, whether it ponds or not.
  --------------------------------------------------------------------------
                                                             Total   Maximum
                                 Maximum   Time of Max       Flood    Ponded
                        Hours       Rate    Occurrence      Volume     Depth
  Node                 Flooded       LPS   days hr:min    10^6 ltr    Meters
  --------------------------------------------------------------------------
  XR-storage              1.63    251.37      0  06:00       0.608     0.000
  
  
  **********************
  Storage Volume Summary
  **********************
  
  --------------------------------------------------------------------------------------------------
                         Average     Avg  Evap Exfil       Maximum     Max    Time of Max    Maximum
                          Volume    Pcnt  Pcnt  Pcnt        Volume    Pcnt     Occurrence    Outflow
  Storage Unit           1000 m3    Full  Loss  Loss       1000 m3    Full    days hr:min        LPS
  --------------------------------------------------------------------------------------------------
  JK-storage               0.020       7     0     0         0.208      71       0  03:16     600.00
  CC-storage               1.693      11     0     0         2.580      16       0  05:49     400.00
  XR-storage               0.784      85     0     0         0.926     100       0  03:43     380.00
  
  
  ***********************
  Outfall Loading Summary
  ***********************
  
  -----------------------------------------------------------
                         Flow       Avg       Max       Total
                         Freq      Flow      Flow      Volume
  Outfall Node           Pcnt       LPS       LPS    10^6 ltr
  -----------------------------------------------------------
  WSC                   99.99    569.11    906.53      14.010
  3                     84.61    195.50    515.02       3.234
  4                     32.54     72.87    148.65       0.519
  5                      0.00      0.00      0.00       0.000
  -----------------------------------------------------------
  System                54.29    837.48   1427.29      17.762
  
  
  ********************
  Link Flow Summary
  ********************
  
  -----------------------------------------------------------------------------
                                 Maximum  Time of Max   Maximum    Max/    Max/
                                  |Flow|   Occurrence   |Veloc|    Full    Full
  Link                 Type          LPS  days hr:min     m/sec    Flow   Depth
  -----------------------------------------------------------------------------
  WS02003066WSF200     CONDUIT    538.73     0  02:39      2.77    0.09    0.23
  WS02006287WS02006284 CONDUIT    254.16     0  02:16      1.74    0.12    0.24
  WS02006284WS02006280 CONDUIT    254.26     0  02:17      1.98    0.11    0.22
  WS02006280WS02006229 CONDUIT    254.27     0  02:17      3.19    0.05    0.16
  WS02006229WS02006228 CONDUIT    533.93     0  02:29      1.06    1.77    1.00
  WS02006256WS02006235 CONDUIT    166.25     0  00:01      2.58    1.76    1.00
  WS02006253WS02006251 CONDUIT     52.62     0  02:19      0.53    0.16    0.95
  WS02006252WS02006251 CONDUIT    400.40     0  06:13      3.19    1.47    1.00
  WS02006251WS02006249 CONDUIT    433.27     0  02:40      1.18    1.25    0.91
  WS02006249WS02006248 CONDUIT    356.10     0  07:21      1.16    1.95    0.87
  WS02006248WS02006247 CONDUIT    351.43     0  07:21      1.13    0.76    0.91
  WS02006247WS02006245 CONDUIT    346.49     0  07:21      1.10    2.75    0.96
  WS02006245WS02006243 CONDUIT    341.21     0  07:21      1.12    1.01    0.97
  WS02006243WS02006242 CONDUIT    330.16     0  07:21      0.99    0.71    1.00
  WS02006242WS02006240 CONDUIT    317.78     0  07:22      0.91    1.26    1.00
  WS02006240WS02006239 CONDUIT    316.89     0  07:30      0.90    1.00    1.00
  WS02006239WS02006238 CONDUIT    317.24     0  07:30      0.82    1.02    1.00
  WS02006238WS02006235 CONDUIT    317.24     0  07:30      1.25    0.71    1.00
  WS02006235WS02006234 CONDUIT    390.96     0  04:18      1.04    4.12    1.00
  WS02006234WS02006232 CONDUIT    390.78     0  04:18      1.13    0.79    1.00
  WS02006232WS02006231 CONDUIT    390.79     0  04:18      1.06    0.82    0.98
  WS02006231WS02006230 CONDUIT    390.56     0  04:18      1.36    5.92    0.94
  WS02006230WS02006229 CONDUIT    400.68     0  04:19      1.04    8.92    1.00
  WS02006228WS02006109 CONDUIT    533.92     0  02:29      1.06    2.33    1.00
  WS02006116WS02004401 CONDUIT    540.93     0  02:32      0.77    0.75    0.84
  WS02006115WS02006116 CONDUIT    542.42     0  02:31      0.86    0.70    0.76
  WS02006113WS02006111 CONDUIT    556.62     0  02:30      2.46    0.67    0.46
  WS02006112WS02006115 CONDUIT    548.23     0  02:31      0.76    0.32    0.87
  WS02006111WS02006112 CONDUIT    540.85     0  02:30      1.50    0.26    0.67
  WS02006110WS02006113 CONDUIT    535.66     0  02:30      1.27    0.49    0.78
  WS02006109WS02006110 CONDUIT    535.14     0  02:29      1.06    1.03    1.00
  WS02004411WS02004412 CONDUIT    538.73     0  02:38      0.92    0.77    0.70
  WS02004401WS02004402 CONDUIT    540.70     0  02:32      0.77    0.65    0.87
  WS02004413WS02003067 CONDUIT    538.63     0  02:39      1.11    0.23    0.59
  WS02004412WS02004413 CONDUIT    538.64     0  02:39      0.82    0.36    0.78
  WS02004410WS02004411 CONDUIT    538.70     0  02:38      0.94    0.74    0.69
  WS02004409WS02004410 CONDUIT    538.90     0  02:33      0.96    0.70    0.68
  WS02004407WS02004409 CONDUIT    540.01     0  02:33      1.47    0.19    0.48
  WS02004406WS02004407 CONDUIT    540.07     0  02:33      1.04    0.24    0.63
  WS02004405WS02004406 CONDUIT    540.44     0  02:32      0.70    1.07    0.96
  WS02004404WS02004405 CONDUIT    540.21     0  02:32      0.84    5.29    0.96
  WS02004403WS02004404 CONDUIT    540.23     0  02:33      0.74    0.39    0.93
  WS02004402WS02004403 CONDUIT    540.18     0  02:32      0.75    0.78    0.89
  WS02004139WS02001211 CONDUIT    377.73     0  02:28      0.69    0.48    0.58
  WS02004138WS02004139 CONDUIT    380.00     0  02:22      2.94    0.08    0.43
  WS02003067WS02003066 CONDUIT    538.67     0  02:39      1.21    0.17    0.42
  WS02001213WS02003059 CONDUIT    378.54     0  07:22      0.65    0.62    0.76
  WS02001212WS02001213 CONDUIT    378.66     0  02:27      1.29    0.58    0.46
  WS02001211WS02001212 CONDUIT    381.90     0  02:27      0.77    0.29    0.64
  WS02003072WS02003073 CONDUIT    904.94     0  02:34      1.70    1.95    0.48
  WS02003069WS02003072 CONDUIT    905.18     0  02:33      1.60    0.44    0.50
  WS02003060WS02003069 CONDUIT    905.38     0  02:33      1.85    0.35    0.45
  WS02003059WS02003060 CONDUIT    380.30     0  07:22      0.82    0.25    0.65
  HS02004901HS02004770 CONDUIT     12.91     0  02:13      0.05    0.05    0.35
  HS02004876HS02004881 CONDUIT     43.90     0  02:17      0.67    0.47    0.09
  HS02004870HS02004876 CONDUIT     34.92     0  02:17      0.46    0.02    0.11
  HS02004842HS02004848 CONDUIT      6.44     0  02:29      0.03    0.00    0.28
  HS02004837HS02004842 CONDUIT      6.66     0  02:30      0.41    0.00    0.30
  HS02004830HS02004837 CONDUIT     27.63     0  02:17      0.47    0.03    0.08
  HS02004824HS02004830 CONDUIT     27.78     0  02:17      0.51    0.04    0.08
  HS02004817HS02004824 CONDUIT     46.16     0  02:20      0.17    0.02    0.42
  HS02004770HS02004777 CONDUIT     65.68     0  02:13      0.26    0.12    0.36
  HS02004799HS02004480 CONDUIT    162.16     0  02:15      0.66    0.20    0.35
  HS02004792HS02004799 CONDUIT    148.18     0  02:14      0.76    0.09    0.28
  HS02004788HS02004792 CONDUIT     86.18     0  02:15      0.90    0.06    0.14
  HS02004785HS02004788 CONDUIT     65.30     0  02:15      0.57    0.49    0.16
  HS02004777HS02004785 CONDUIT     65.24     0  02:14      0.32    0.08    0.30
  HS02004480HS02004478 CONDUIT    191.51     0  02:15      1.05    0.81    0.26
  HS02004479HS02004480 CONDUIT     30.03     0  02:17      0.15    0.03    0.34
  HS02004862HS02004870 CONDUIT     25.61     0  02:18      0.51    0.03    0.07
  HS02004848HS02004852 CONDUIT     10.62     0  02:17      0.34    0.01    0.04
  HS02004856HS02004862 CONDUIT     17.50     0  02:17      0.38    0.02    0.07
  HS02004852HS02004856 CONDUIT     10.59     0  02:18      0.15    0.01    0.10
  HS02004802HS02004478 CONDUIT     64.70     0  02:20      0.34    0.06    0.28
  HS02004478WS02006287 CONDUIT    254.12     0  02:16      1.44    0.07    0.20
  HS02004817HS02004807 CONDUIT     47.48     0  02:22      0.13    0.03    0.54
  HS02004807HS02004802 CONDUIT     64.20     0  02:19      0.28    0.12    0.33
  YS02001759YS02001757 CONDUIT    257.94     0  02:40      0.33    0.18    1.00
  YS02001762YS02001759 CONDUIT    136.45     0  02:40      0.18    0.16    1.00
  YS02001765YS02001762 CONDUIT    135.05     0  03:01      0.23    0.13    1.00
  YS02001770YS02001767 CONDUIT    144.19     0  02:40      0.32    0.57    1.00
  YS02001774YS02001770 CONDUIT     49.39     0  02:13      0.14    0.03    1.00
  YS02001779YS02001774 CONDUIT     46.34     0  03:35      0.08    0.02    1.00
  YS02001649YS02001757 CONDUIT    398.84     0  03:04      0.51    0.24    1.00
  YS02001767YS02001765 CONDUIT    143.60     0  02:33      0.26    0.18    1.00
  YS02006561YS02001783 CONDUIT    420.65     0  02:57      1.92    0.22    0.45
  YS02001783YS02001784 CONDUIT    419.93     0  02:53      1.36    0.58    0.59
  YS02001784YS02001785 CONDUIT    420.88     0  02:54      1.46    0.98    0.56
  YS02001788YS02001790 CONDUIT    421.00     0  03:00      2.02    0.31    0.43
  YS02001790YS02001791 CONDUIT    421.07     0  02:55      2.35    0.46    0.39
  YS02001791YS02001793 CONDUIT    421.09     0  02:55      4.80    0.18    0.25
  YS02001910YS02001907 CONDUIT    135.18     0  03:03      0.49    0.08    0.81
  YS02001786YS02001788 CONDUIT    420.89     0  02:54      1.90    0.81    0.45
  YS02001915YS02001910 CONDUIT    133.77     0  03:03      0.45    0.07    0.60
  YS02001918YS02001915 CONDUIT     46.60     0  03:03      0.44    0.03    0.32
  YS02001923YS02001920 CONDUIT     41.53     0  03:01      0.50    0.02    0.16
  YS02001926YS02001923 CONDUIT     41.49     0  03:01      0.55    0.06    0.15
  YS02001929YS02001926 CONDUIT     41.52     0  03:01      0.59    0.02    0.15
  YS02001920YS02001918 CONDUIT     44.68     0  03:04      0.51    0.04    0.19
  YS02001629YS02163301 CONDUIT     96.32     0  02:43      0.12    0.12    1.00
  YS02001619YS02001622 CONDUIT    136.22     0  03:55      0.70    0.20    1.00
  YS02001622YS02001625 CONDUIT    200.55     0  03:53      0.28    0.11    1.00
  YS02001625YS02001629 CONDUIT    198.72     0  03:53      0.27    0.09    1.00
  YS02163301YS02001633 CONDUIT     99.51     0  02:37      0.13    0.09    1.00
  YS02163601YS02164001 CONDUIT    181.18     0  02:56      0.23    0.16    1.00
  YS02164001YS02001641 CONDUIT    182.70     0  03:03      0.23    0.25    1.00
  YS02001641YS02001644 CONDUIT    184.42     0  03:03      0.23    0.60    1.00
  YS02001647YS02001649 CONDUIT    309.14     0  02:52      0.40    0.16    1.00
  YS02006553YS02006556 CONDUIT    289.31     0  03:03      0.39    0.25    0.89
  YS02006556YS02006558 CONDUIT    291.01     0  03:02      0.39    0.23    0.92
  YSB6556YSB1171       CONDUIT     16.30     0  02:18      0.07    0.02    0.61
  YS02001907YS02006553 CONDUIT    289.43     0  02:59      0.32    0.34    1.00
  YS02006558YS02006561 CONDUIT    441.28     0  02:53      2.61    0.98    0.58
  YS02001633YS02163601 CONDUIT    183.02     0  02:56      0.23    0.19    1.00
  YS02001644YS02001647 CONDUIT    276.25     0  03:03      0.35    0.16    1.00
  YS02001745YS02001748 CONDUIT    197.55     0  03:39      1.48    0.08    0.60
  YS02001748YS02001751 CONDUIT    239.89     0  03:38      1.15    0.12    0.95
  YS02001751YS02001754 CONDUIT    153.08     0  02:58      1.01    0.07    1.00
  YS02001754YS02001757 CONDUIT    133.22     0  03:53      0.33    0.05    1.00
  YS02001882YS02001884 CONDUIT      4.74     0  02:05      0.06    0.01    0.54
  YS02001884YS02001887 CONDUIT     13.70     0  02:05      0.06    0.02    0.63
  YS02001890YS02001895 CONDUIT    158.09     0  02:45      0.33    0.07    0.60
  YS02001895YS02001898 CONDUIT    157.64     0  02:45      0.50    0.27    0.46
  YS02001898YS02001901 CONDUIT    157.55     0  02:46      0.37    0.10    0.54
  YS02001901YS02001904 CONDUIT    157.42     0  02:46      0.33    0.24    0.59
  YS02001904YS02001907 CONDUIT    158.15     0  02:47      0.25    0.06    0.75
  YS02001887YS02001890 CONDUIT    158.50     0  02:45      0.28    0.27    0.69
  YS02001652YS02001649 CONDUIT    155.80     0  03:01      0.34    0.08    1.00
  YS02001655YS02001652 CONDUIT    186.18     0  03:02      1.08    0.09    1.00
  YS02001658YS02001655 CONDUIT    314.73     0  03:44      1.33    0.13    0.91
  YS02001661YS02001658 CONDUIT    267.42     0  04:00      1.55    0.10    0.63
  YS02001664YS02001661 CONDUIT    112.77     0  02:44      1.26    0.04    0.30
  YSB1154YSB6556       CONDUIT     15.99     0  02:16      0.19    0.03    0.50
  YSB1174YSB1171       CONDUIT     14.68     0  02:10      0.06    0.02    0.62
  YSB1171HS02004479    CONDUIT     29.76     0  02:16      0.54    0.02    0.48
  HS02004881HS02006253 CONDUIT     49.08     0  02:16      1.82    0.01    0.26
  YS02001793JiankangQianchi CONDUIT    424.03     0  02:58     14.46    0.03    0.56
  YS02001757CaochengTiaoxuchi CONDUIT    712.22     0  02:55      1.56    0.31    0.96
  WSF200WS02003060     CONDUIT    540.63     0  02:39      1.82    0.12    0.34
  1                    CONDUIT    906.53     0  02:34      3.24    0.32    0.39
  2                    CONDUIT    148.65     0  02:41      5.40    0.36    0.41
  3                    CONDUIT    515.02     0  02:50     10.15    0.82    0.69
  4                    CONDUIT      0.00     0  00:00      0.00    0.00    0.00
  CC-Pump-1            PUMP       200.00     0  02:40              1.00
  CC-Pump-2            PUMP       200.00     0  02:18              1.00
  JK-Pump-1            PUMP       300.00     0  00:00              1.00
  JK-Pump-2            PUMP       300.00     0  02:23              1.00
  XR-Pump-1            PUMP        95.00     0  02:10              1.00
  XR-Pump-2            PUMP        95.00     0  00:00              1.00
  XR-Pump-3            PUMP        95.00     0  00:40              1.00
  XR-Pump-4            PUMP        95.00     0  00:00              1.00
  
  
  ***************************
  Flow Classification Summary
  ***************************
  
  -------------------------------------------------------------------------------------
                      Adjusted    ---------- Fraction of Time in Flow Class ---------- 
                       /Actual         Up    Down  Sub   Sup   Up    Down  Norm  Inlet 
  Conduit               Length    Dry  Dry   Dry   Crit  Crit  Crit  Crit  Ltd   Ctrl  
  -------------------------------------------------------------------------------------
  WS02003066WSF200        1.00   0.06  0.00  0.00  0.00  0.94  0.00  0.00  0.67  0.00
  WS02006287WS02006284    1.00   0.04  0.02  0.00  0.66  0.28  0.00  0.00  0.77  0.00
  WS02006284WS02006280    1.00   0.05  0.00  0.00  0.00  0.00  0.00  0.95  0.00  0.00
  WS02006280WS02006229    1.00   0.05  0.00  0.00  0.00  0.00  0.00  0.95  0.00  0.00
  WS02006229WS02006228    1.00   0.00  0.00  0.00  0.99  0.00  0.00  0.01  0.00  0.00
  WS02006256WS02006235    1.00   0.00  0.00  0.00  1.00  0.00  0.00  0.00  0.00  0.00
  WS02006253WS02006251    1.00   0.03  0.01  0.00  0.95  0.00  0.00  0.00  0.00  0.00
  WS02006252WS02006251    1.00   0.08  0.00  0.00  0.00  0.00  0.91  0.00  0.00  0.00
  WS02006251WS02006249    1.00   0.00  0.00  0.00  1.00  0.00  0.00  0.00  0.27  0.00
  WS02006249WS02006248    1.00   0.00  0.02  0.00  0.89  0.00  0.09  0.00  0.00  0.00
  WS02006248WS02006247    1.00   0.02  0.00  0.00  0.97  0.00  0.00  0.00  0.17  0.00
  WS02006247WS02006245    1.00   0.02  0.00  0.00  0.98  0.00  0.00  0.00  0.00  0.00
  WS02006245WS02006243    1.00   0.01  0.00  0.00  0.94  0.00  0.00  0.04  0.01  0.00
  WS02006243WS02006242    1.00   0.01  0.00  0.00  0.99  0.00  0.00  0.00  0.26  0.00
  WS02006242WS02006240    1.00   0.00  0.00  0.00  1.00  0.00  0.00  0.00  0.00  0.00
  WS02006240WS02006239    1.00   0.00  0.00  0.00  0.95  0.00  0.00  0.04  0.01  0.00
  WS02006239WS02006238    1.00   0.00  0.00  0.00  1.00  0.00  0.00  0.00  0.01  0.00
  WS02006238WS02006235    1.00   0.00  0.00  0.00  1.00  0.00  0.00  0.00  0.00  0.00
  WS02006235WS02006234    1.00   0.00  0.00  0.00  0.95  0.00  0.05  0.00  0.00  0.00
  WS02006234WS02006232    1.00   0.00  0.00  0.00  1.00  0.00  0.00  0.00  0.05  0.00
  WS02006232WS02006231    1.00   0.00  0.00  0.00  0.99  0.00  0.00  0.00  0.00  0.00
  WS02006231WS02006230    1.00   0.00  0.00  0.00  0.53  0.00  0.46  0.00  0.00  0.00
  WS02006230WS02006229    1.00   0.00  0.00  0.00  0.98  0.00  0.00  0.02  0.01  0.00
  WS02006228WS02006109    1.00   0.00  0.00  0.00  1.00  0.00  0.00  0.00  0.00  0.00
  WS02006116WS02004401    1.00   0.03  0.00  0.00  0.97  0.00  0.00  0.00  0.00  0.00
  WS02006115WS02006116    1.00   0.03  0.00  0.00  0.97  0.00  0.00  0.01  0.00  0.00
  WS02006113WS02006111    1.00   0.02  0.00  0.00  0.00  0.98  0.00  0.00  0.12  0.00
  WS02006112WS02006115    1.00   0.02  0.00  0.00  0.97  0.00  0.00  0.00  0.00  0.00
  WS02006111WS02006112    1.00   0.02  0.00  0.00  0.97  0.00  0.00  0.00  0.98  0.00
  WS02006110WS02006113    1.00   0.01  0.01  0.00  0.98  0.00  0.00  0.00  0.00  0.00
  WS02006109WS02006110    1.00   0.00  0.01  0.00  0.98  0.00  0.01  0.00  0.00  0.00
  WS02004411WS02004412    1.00   0.04  0.00  0.00  0.96  0.00  0.00  0.00  0.00  0.00
  WS02004401WS02004402    1.00   0.03  0.00  0.00  0.97  0.00  0.00  0.00  0.00  0.00
  WS02004413WS02003067    1.00   0.04  0.01  0.00  0.00  0.00  0.94  0.00  0.00  0.00
  WS02004412WS02004413    1.00   0.04  0.00  0.00  0.96  0.00  0.00  0.00  0.03  0.00
  WS02004410WS02004411    1.00   0.04  0.00  0.00  0.96  0.00  0.00  0.00  0.03  0.00
  WS02004409WS02004410    1.00   0.04  0.00  0.00  0.96  0.00  0.00  0.00  0.03  0.00
  WS02004407WS02004409    1.00   0.04  0.00  0.00  0.96  0.00  0.00  0.00  0.89  0.00
  WS02004406WS02004407    1.00   0.00  0.04  0.00  0.96  0.00  0.00  0.00  0.00  0.00
  WS02004405WS02004406    1.00   0.00  0.00  0.00  1.00  0.00  0.00  0.00  0.00  0.00
  WS02004404WS02004405    1.00   0.00  0.00  0.00  1.00  0.00  0.00  0.00  0.00  0.00
  WS02004403WS02004404    1.00   0.00  0.03  0.00  0.97  0.00  0.00  0.00  0.01  0.00
  WS02004402WS02004403    1.00   0.03  0.00  0.00  0.97  0.00  0.00  0.00  0.00  0.00
  WS02004139WS02001211    1.00   0.00  0.00  0.00  0.99  0.00  0.00  0.00  0.00  0.00
  WS02004138WS02004139    1.00   0.00  0.00  0.00  0.99  0.01  0.00  0.00  1.00  0.00
  WS02003067WS02003066    1.00   0.06  0.00  0.00  0.94  0.00  0.00  0.00  0.00  0.00
  WS02001213WS02003059    1.00   0.00  0.00  0.00  0.99  0.00  0.00  0.00  0.00  0.00
  WS02001212WS02001213    1.00   0.00  0.00  0.00  0.88  0.00  0.11  0.00  0.00  0.00
  WS02001211WS02001212    1.00   0.00  0.00  0.00  1.00  0.00  0.00  0.00  0.00  0.00
  WS02003072WS02003073    1.00   0.00  0.00  0.00  0.00  0.00  0.00  1.00  0.00  0.00
  WS02003069WS02003072    1.00   0.00  0.00  0.00  0.99  0.01  0.00  0.00  0.27  0.00
  WS02003060WS02003069    1.00   0.00  0.00  0.00  0.99  0.01  0.00  0.00  0.11  0.00
  WS02003059WS02003060    1.00   0.00  0.00  0.00  1.00  0.00  0.00  0.00  0.01  0.00
  HS02004901HS02004770    1.00   0.05  0.00  0.00  0.95  0.00  0.00  0.00  0.02  0.00
  HS02004876HS02004881    1.00   0.02  0.00  0.00  0.98  0.00  0.00  0.00  0.00  0.00
  HS02004870HS02004876    1.00   0.01  0.00  0.00  0.99  0.00  0.00  0.00  0.95  0.00
  HS02004842HS02004848    1.00   0.00  0.05  0.00  0.95  0.00  0.00  0.00  0.67  0.00
  HS02004837HS02004842    1.00   0.00  0.00  0.00  0.99  0.01  0.00  0.00  0.11  0.00
  HS02004830HS02004837    1.00   0.00  0.00  0.00  1.00  0.00  0.00  0.00  0.99  0.00
  HS02004824HS02004830    1.00   0.00  0.00  0.00  1.00  0.00  0.00  0.00  0.00  0.00
  HS02004817HS02004824    1.00   0.00  0.00  0.00  1.00  0.00  0.00  0.00  1.00  0.00
  HS02004770HS02004777    1.00   0.00  0.05  0.00  0.95  0.00  0.00  0.00  0.07  0.00
  HS02004799HS02004480    1.00   0.00  0.03  0.00  0.94  0.00  0.03  0.00  0.00  0.00
  HS02004792HS02004799    1.00   0.00  0.00  0.00  0.99  0.01  0.00  0.00  0.98  0.00
  HS02004788HS02004792    1.00   0.00  0.00  0.00  0.99  0.01  0.00  0.00  0.98  0.00
  HS02004785HS02004788    1.00   0.00  0.00  0.00  1.00  0.00  0.00  0.00  0.00  0.00
  HS02004777HS02004785    1.00   0.00  0.00  0.00  1.00  0.00  0.00  0.00  0.20  0.00
  HS02004480HS02004478    1.00   0.05  0.00  0.00  0.71  0.00  0.00  0.24  0.00  0.00
  HS02004479HS02004480    1.00   0.03  0.00  0.00  0.97  0.00  0.00  0.00  0.16  0.00
  HS02004862HS02004870    1.00   0.00  0.00  0.00  1.00  0.00  0.00  0.00  0.06  0.00
  HS02004848HS02004852    1.00   0.05  0.00  0.00  0.95  0.00  0.00  0.00  0.71  0.00
  HS02004856HS02004862    1.00   0.00  0.07  0.00  0.93  0.00  0.00  0.00  0.75  0.00
  HS02004852HS02004856    1.00   0.05  0.01  0.00  0.95  0.00  0.00  0.00  0.83  0.00
  HS02004802HS02004478    1.00   0.05  0.01  0.00  0.95  0.00  0.00  0.00  0.01  0.00
  HS02004478WS02006287    1.00   0.06  0.00  0.00  0.83  0.11  0.00  0.00  0.75  0.00
  HS02004817HS02004807    1.00   0.00  0.05  0.00  0.95  0.00  0.00  0.00  0.00  0.00
  HS02004807HS02004802    1.00   0.05  0.00  0.00  0.95  0.00  0.00  0.00  0.01  0.00
  YS02001759YS02001757    1.00   0.00  0.00  0.00  1.00  0.00  0.00  0.00  0.17  0.00
  YS02001762YS02001759    1.00   0.00  0.00  0.00  1.00  0.00  0.00  0.00  0.04  0.00
  YS02001765YS02001762    1.00   0.00  0.00  0.00  1.00  0.00  0.00  0.00  0.22  0.00
  YS02001770YS02001767    1.00   0.00  0.00  0.00  1.00  0.00  0.00  0.00  0.00  0.00
  YS02001774YS02001770    1.00   0.00  0.05  0.00  0.95  0.00  0.00  0.00  0.06  0.00
  YS02001779YS02001774    1.00   0.00  0.00  0.00  1.00  0.00  0.00  0.00  0.26  0.00
  YS02001649YS02001757    1.00   0.00  0.00  0.00  1.00  0.00  0.00  0.00  0.19  0.00
  YS02001767YS02001765    1.00   0.00  0.00  0.00  1.00  0.00  0.00  0.00  0.01  0.00
  YS02006561YS02001783    1.00   0.07  0.00  0.00  0.00  0.93  0.00  0.00  0.63  0.00
  YS02001783YS02001784    1.00   0.00  0.07  0.00  0.93  0.00  0.00  0.00  0.00  0.00
  YS02001784YS02001785    1.00   0.00  0.00  0.00  1.00  0.00  0.00  0.00  0.25  0.00
  YS02001788YS02001790    1.00   0.00  0.00  0.00  0.07  0.93  0.00  0.00  0.71  0.00
  YS02001790YS02001791    1.00   0.00  0.00  0.00  0.02  0.98  0.00  0.00  0.61  0.00
  YS02001791YS02001793    1.00   0.00  0.00  0.00  0.00  1.00  0.00  0.00  0.00  0.00
  YS02001910YS02001907    1.00   0.00  0.00  0.00  0.97  0.00  0.00  0.03  0.13  0.00
  YS02001786YS02001788    1.00   0.00  0.00  0.00  0.08  0.92  0.00  0.00  0.00  0.00
  YS02001915YS02001910    1.00   0.00  0.00  0.00  0.99  0.01  0.00  0.00  0.24  0.00
  YS02001918YS02001915    1.00   0.00  0.01  0.00  0.98  0.02  0.00  0.00  0.71  0.00
  YS02001923YS02001920    1.00   0.00  0.00  0.00  1.00  0.00  0.00  0.00  1.00  0.00
  YS02001926YS02001923    1.00   0.00  0.04  0.00  0.00  0.00  0.96  0.00  0.00  0.00
  YS02001929YS02001926    1.00   0.00  0.05  0.00  0.95  0.00  0.00  0.00  0.87  0.00
  YS02001920YS02001918    1.00   0.00  0.01  0.00  0.99  0.00  0.00  0.00  0.00  0.00
  YS02001629YS02163301    1.00   0.06  0.00  0.00  0.93  0.00  0.00  0.00  0.00  0.00
  YS02001619YS02001622    1.00   0.05  0.00  0.00  0.95  0.00  0.00  0.00  0.00  0.00
  YS02001622YS02001625    1.00   0.05  0.00  0.00  0.95  0.00  0.00  0.00  0.12  0.00
  YS02001625YS02001629    1.00   0.05  0.03  0.00  0.91  0.00  0.01  0.00  0.00  0.00
  YS02163301YS02001633    1.00   0.00  0.06  0.00  0.94  0.00  0.00  0.00  0.00  0.00
  YS02163601YS02164001    1.00   0.00  0.04  0.00  0.96  0.00  0.00  0.00  0.00  0.00
  YS02164001YS02001641    1.00   0.01  0.03  0.00  0.96  0.00  0.00  0.00  0.07  0.00
  YS02001641YS02001644    1.00   0.00  0.01  0.00  0.99  0.00  0.00  0.00  0.00  0.00
  YS02001647YS02001649    1.00   0.00  0.07  0.00  0.93  0.00  0.00  0.00  0.01  0.00
  YS02006553YS02006556    1.00   0.02  0.00  0.00  0.98  0.00  0.00  0.00  0.03  0.00
  YS02006556YS02006558    1.00   0.00  0.00  0.00  1.00  0.00  0.00  0.00  0.00  0.00
  YSB6556YSB1171          1.00   0.03  0.02  0.00  0.96  0.00  0.00  0.00  0.00  0.00
  YS02001907YS02006553    1.00   0.00  0.02  0.00  0.97  0.00  0.00  0.00  0.00  0.00
  YS02006558YS02006561    1.00   0.07  0.00  0.00  0.00  0.93  0.00  0.00  0.63  0.00
  YS02001633YS02163601    1.00   0.00  0.01  0.00  0.99  0.00  0.00  0.00  0.19  0.00
  YS02001644YS02001647    1.00   0.00  0.07  0.00  0.93  0.00  0.00  0.00  0.00  0.00
  YS02001745YS02001748    1.00   0.00  0.00  0.00  0.87  0.01  0.00  0.11  0.14  0.00
  YS02001748YS02001751    1.00   0.00  0.00  0.00  0.97  0.03  0.00  0.00  0.23  0.00
  YS02001751YS02001754    1.00   0.00  0.00  0.00  0.92  0.00  0.00  0.07  0.01  0.00
  YS02001754YS02001757    1.00   0.00  0.00  0.00  0.99  0.01  0.00  0.00  0.26  0.00
  YS02001882YS02001884    1.00   0.06  0.00  0.00  0.94  0.00  0.00  0.00  0.00  0.00
  YS02001884YS02001887    1.00   0.03  0.01  0.00  0.96  0.00  0.00  0.00  0.00  0.00
  YS02001890YS02001895    1.00   0.00  0.06  0.00  0.94  0.00  0.00  0.00  0.00  0.00
  YS02001895YS02001898    1.00   0.06  0.00  0.00  0.93  0.00  0.01  0.00  0.00  0.00
  YS02001898YS02001901    1.00   0.06  0.00  0.00  0.93  0.00  0.00  0.00  0.02  0.00
  YS02001901YS02001904    1.00   0.06  0.00  0.00  0.94  0.00  0.00  0.00  0.00  0.00
  YS02001904YS02001907    1.00   0.00  0.06  0.00  0.94  0.00  0.00  0.00  0.00  0.00
  YS02001887YS02001890    1.00   0.00  0.00  0.00  0.97  0.00  0.02  0.00  0.00  0.00
  YS02001652YS02001649    1.00   0.00  0.00  0.00  1.00  0.00  0.00  0.00  0.25  0.00
  YS02001655YS02001652    1.00   0.00  0.00  0.00  0.92  0.00  0.00  0.07  0.02  0.00
  YS02001658YS02001655    1.00   0.00  0.06  0.00  0.92  0.03  0.00  0.00  0.09  0.00
  YS02001661YS02001658    1.00   0.06  0.00  0.00  0.87  0.07  0.00  0.00  0.16  0.00
  YS02001664YS02001661    1.00   0.05  0.00  0.00  0.73  0.22  0.00  0.00  0.86  0.00
  YSB1154YSB6556          1.00   0.04  0.00  0.00  0.96  0.00  0.00  0.00  0.02  0.00
  YSB1174YSB1171          1.00   0.03  0.01  0.00  0.96  0.00  0.00  0.00  0.00  0.00
  YSB1171HS02004479       1.00   0.03  0.00  0.00  0.97  0.00  0.00  0.00  0.13  0.00
  HS02004881HS02006253    1.00   0.03  0.00  0.00  0.75  0.02  0.00  0.20  0.58  0.00
  YS02001793JiankangQianchi    1.00   0.00  0.00  0.00  0.22  0.78  0.00  0.00  0.21  0.00
  YS02001757CaochengTiaoxuchi    1.00   0.00  0.08  0.00  0.92  0.00  0.00  0.00  0.00  0.00
  WSF200WS02003060        1.00   0.00  0.06  0.00  0.67  0.27  0.00  0.00  0.25  0.00
  1                       1.00   0.00  0.00  0.00  0.00  1.00  0.00  0.00  0.38  0.00
  2                       1.00   0.67  0.00  0.00  0.00  0.33  0.00  0.00  0.05  0.00
  3                       1.00   0.15  0.00  0.00  0.00  0.85  0.00  0.00  0.32  0.00
  4                       1.00   1.00  0.00  0.00  0.00  0.00  0.00  0.00  0.00  0.00
  
  
  *************************
  Conduit Surcharge Summary
  *************************
  
  ----------------------------------------------------------------------------
                                                           Hours        Hours 
                         --------- Hours Full --------   Above Full   Capacity
  Conduit                Both Ends  Upstream  Dnstream   Normal Flow   Limited
  ----------------------------------------------------------------------------
  WS02006229WS02006228        1.85      1.99      1.85      4.13         1.85
  WS02006256WS02006235        5.75      5.75      7.31      2.86         0.01
  WS02006252WS02006251        1.49      1.49      2.06      1.91         0.01
  WS02006251WS02006249        0.01      0.01      0.01      1.50         0.01
  WS02006249WS02006248        0.01      0.01      0.01      4.20         0.01
  WS02006247WS02006245        0.01      0.01      0.01      4.60         0.01
  WS02006245WS02006243        0.01      0.01      0.01      0.02         0.01
  WS02006243WS02006242        0.17      0.17      1.48      0.01         0.01
  WS02006242WS02006240        0.35      0.35      1.73      2.02         0.01
  WS02006240WS02006239        0.44      0.44      0.58      0.01         0.01
  WS02006239WS02006238        1.68      1.68      1.76      0.37         0.38
  WS02006238WS02006235        1.68      1.68      1.91      0.01         0.01
  WS02006235WS02006234        0.46      0.46      1.49      5.76         0.01
  WS02006234WS02006232        0.59      0.59      1.98      0.01         0.01
  WS02006232WS02006231        0.01      0.01      1.98      0.01         0.01
  WS02006231WS02006230        0.01      0.01      0.01      5.76         0.01
  WS02006230WS02006229        2.49      3.80      2.49      5.84         2.49
  WS02006228WS02006109        1.93      2.24      1.93      5.16         1.93
  WS02006112WS02006115        0.01      0.01      0.59      0.01         0.01
  WS02006111WS02006112        0.01      0.01      4.30      0.01         0.01
  WS02006110WS02006113        0.01      0.01      2.09      0.01         0.01
  WS02006109WS02006110        0.35      0.35      2.23      0.36         0.01
  WS02004405WS02004406        0.01      0.01      0.01      0.50         0.01
  WS02004404WS02004405        0.01      0.01      0.01      5.65         0.01
  WS02003072WS02003073        0.01      0.01      0.01      5.07         0.01
  YS02001759YS02001757        5.35      5.35      5.43      0.01         0.01
  YS02001762YS02001759        5.32      5.32      5.35      0.01         0.01
  YS02001765YS02001762        5.27      5.27      5.32      0.01         0.01
  YS02001770YS02001767        5.21      5.22      5.22      0.01         0.87
  YS02001774YS02001770        5.13      5.13      5.31      0.01         0.01
  YS02001779YS02001774        3.97      3.97      5.31      0.01         0.01
  YS02001649YS02001757        5.33      5.33      5.43      0.01         0.01
  YS02001767YS02001765        5.22      5.22      5.27      0.01         0.01
  YS02001629YS02163301        5.07      5.07      5.19      0.01         0.01
  YS02001619YS02001622        0.38      0.38      0.97      0.01         0.02
  YS02001622YS02001625        0.97      0.97      4.63      0.01         0.01
  YS02001625YS02001629        0.38      0.38      4.63      0.01         0.01
  YS02163301YS02001633        5.19      5.19      5.28      0.01         0.01
  YS02163601YS02164001        5.27      5.27      5.33      0.01         0.01
  YS02164001YS02001641        5.27      5.27      5.30      0.01         0.01
  YS02001641YS02001644        5.30      5.30      5.30      0.01         0.48
  YS02001647YS02001649        4.47      4.47      5.33      0.01         0.01
  YS02001907YS02006553        0.01      0.01      0.64      0.01         0.01
  YS02001633YS02163601        5.26      5.26      5.33      0.01         0.01
  YS02001644YS02001647        4.47      4.47      5.30      0.01         0.01
  YS02001748YS02001751        0.01      0.01      1.14      0.01         0.01
  YS02001751YS02001754        1.14      1.14      4.17      0.01         0.01
  YS02001754YS02001757        4.47      4.47      5.43      0.01         0.01
  YS02001652YS02001649        4.65      4.65      5.33      0.01         0.01
  YS02001655YS02001652        1.54      1.54      4.40      0.01         0.01
  YS02001658YS02001655        0.01      0.01      1.54      0.01         0.01
  YS02001793JiankangQianchi        0.01      0.01      0.95      0.01         0.01
  YS02001757CaochengTiaoxuchi        0.01      0.01      5.43      0.01         0.01
  
  
  ***************
  Pumping Summary
  ***************
  
  ---------------------------------------------------------------------------------------------------------
                                                  Min       Avg       Max     Total     Power    % Time Off
                        Percent   Number of      Flow      Flow      Flow    Volume     Usage    Pump Curve
  Pump                 Utilized   Start-Ups       LPS       LPS       LPS  10^6 ltr     Kw-hr    Low   High
  ---------------------------------------------------------------------------------------------------------
  CC-Pump-1               54.38           6      0.00    146.49    200.00     2.231      6.07    0.0   13.9
  CC-Pump-2               60.77           5      0.00    143.21    200.00     2.440      7.08    0.0   17.5
  JK-Pump-1               89.35           4      0.00    144.37    300.00     2.577     46.67    0.0    0.0
  JK-Pump-2               82.97           5      0.00    148.47    300.00     2.640     49.25    0.0    0.0
  XR-Pump-1               85.11           9      0.00     65.62     95.00     1.482     12.60    0.0    0.0
  XR-Pump-2               89.35           7      0.00     68.63     95.00     1.682     15.60    0.0    0.0
  XR-Pump-3               82.97           7      0.00     64.27     95.00     1.539     14.72    0.0    0.0
  XR-Pump-4               85.09           7      0.00     70.60     95.00     1.767     17.40    0.0    0.0
  

  Analysis begun on:  Tue Dec 21 14:53:25 2021
  Analysis ended on:  Tue Dec 21 14:53:29 2021
  Total elapsed time: 00:00:04