
  EPA STORM WATER MANAGEMENT MODEL - VERSION 5.1 (Build 5.3.0.dev0)
  --------------------------------------------------------------

  WARNING 04: minimum elevation drop used for Conduit WS02004404WS02004405
  WARNING 03: negative offset ignored for Link YS02001904YS02001907
  
  *********************************************************
  NOTE: The summary statistics displayed in this report are
  based on results found at every computational time step,  
  not just on results from each reporting time step.
  *********************************************************
  
  ****************
  Analysis Options
  ****************
  Flow Units ............... LPS
  Process Models:
    Rainfall/Runoff ........ YES
    RDII ................... NO
    Snowmelt ............... NO
    Groundwater ............ NO
    Flow Routing ........... YES
    Ponding Allowed ........ NO
    Water Quality .......... NO
  Infiltration Method ...... HORTON
  Flow Routing Method ...... DYNWAVE
  Surcharge Method ......... EXTRAN
  Starting Date ............ 08/28/2015 08:00:00
  Ending Date .............. 08/28/2015 15:50:00
  Antecedent Dry Days ...... 8.0
  Report Time Step ......... 00:01:00
  Wet Time Step ............ 00:01:00
  Dry Time Step ............ 00:01:00
  Routing Time Step ........ 5.00 sec
  Variable Time Step ....... YES
  Maximum Trials ........... 8
  Number of Threads ........ 4
  Head Tolerance ........... 0.001500 m
  
  
  **************************        Volume         Depth
  Runoff Quantity Continuity     hectare-m            mm
  **************************     ---------       -------
  Total Precipitation ......         2.605         5.704
  Evaporation Loss .........         0.000         0.000
  Infiltration Loss ........         0.653         1.430
  Surface Runoff ...........         1.076         2.356
  Final Storage ............         0.876         1.919
  Continuity Error (%) .....        -0.018
  
  
  **************************        Volume        Volume
  Flow Routing Continuity        hectare-m      10^6 ltr
  **************************     ---------     ---------
  Dry Weather Inflow .......         0.616         6.165
  Wet Weather Inflow .......         1.075        10.754
  Groundwater Inflow .......         0.000         0.000
  RDII Inflow ..............         0.000         0.000
  External Inflow ..........         0.102         1.024
  External Outflow .........         1.752        17.523
  Flooding Loss ............         0.017         0.169
  Evaporation Loss .........         0.000         0.000
  Exfiltration Loss ........         0.000         0.000
  Initial Stored Volume ....         0.076         0.761
  Final Stored Volume ......         0.224         2.238
  Continuity Error (%) .....        -6.559
  
  
  *************************
  Highest Continuity Errors
  *************************
  Node JK-storage (-31.97%)
  Node HS02004842 (29.22%)
  Node YS02001884 (23.53%)
  Node YSB1171 (7.25%)
  Node YS02001774 (6.25%)
  
  
  ***************************
  Time-Step Critical Elements
  ***************************
  Link WS02006252WS02006251 (54.73%)
  Link 3 (32.28%)
  Link WS02006238WS02006235 (6.04%)
  Link WS02006280WS02006229 (1.77%)
  
  
  ********************************
  Highest Flow Instability Indexes
  ********************************
  Link WS02006113WS02006111 (36)
  Link WS02006111WS02006112 (26)
  Link WS02006110WS02006113 (4)
  Link YS02001754YS02001757 (3)
  Link YS02001649YS02001757 (2)
  
  
  *************************
  Routing Time Step Summary
  *************************
  Minimum Time Step           :     0.39 sec
  Average Time Step           :     0.86 sec
  Maximum Time Step           :     5.00 sec
  Percent in Steady State     :    -0.00
  Average Iterations per Step :     2.06
  Percent Not Converging      :     0.43
  
  
  ***************************
  Subcatchment Runoff Summary
  ***************************
  
  ------------------------------------------------------------------------------------------------------------------------------
                            Total      Total      Total      Total     Imperv       Perv      Total       Total     Peak  Runoff
                           Precip      Runon       Evap      Infil     Runoff     Runoff     Runoff      Runoff   Runoff   Coeff
  Subcatchment                 mm         mm         mm         mm         mm         mm         mm    10^6 ltr      LPS
  ------------------------------------------------------------------------------------------------------------------------------
  sub0                       5.70       0.00       0.00       0.40       4.04       0.00       4.04        0.00     1.40   0.708
  sub1                       5.70       0.00       0.00       0.63       3.82       0.00       3.82        0.03     7.17   0.670
  sub2                       5.70       0.00       0.00       2.11       2.69       0.00       2.69        0.03     6.32   0.471
  sub3                       5.70       0.00       0.00       2.11       2.65       0.00       2.65        0.06    12.95   0.465
  sub4                       5.70       0.00       0.00       0.63       3.68       0.00       3.68        0.08    14.48   0.646
  sub5                       5.70       0.00       0.00       0.40       3.99       0.00       3.99        0.05    12.76   0.700
  sub7                       5.70       0.00       0.00       0.51       3.94       0.00       3.94        0.01     4.53   0.690
  sub8                       5.70       0.00       0.00       0.51       3.93       0.00       3.93        0.03     7.98   0.688
  sub9                       5.70       0.00       0.00       0.51       3.93       0.00       3.93        0.02     5.91   0.688
  sub10                      5.70       0.00       0.00       0.46       3.96       0.00       3.96        0.04    12.75   0.694
  sub11                      5.70       0.00       0.00       0.46       3.97       0.00       3.97        0.05    15.02   0.697
  sub12                      5.70       0.00       0.00       0.74       3.77       0.00       3.77        0.03    12.81   0.662
  sub14                      5.70       0.00       0.00       0.51       3.92       0.00       3.92        0.04    11.54   0.688
  sub15                      5.70       0.00       0.00       1.71       3.01       0.00       3.01        0.05    15.64   0.529
  sub16                      5.70       0.00       0.00       1.88       2.90       0.00       2.90        0.03    11.24   0.509
  sub17                      5.70       0.00       0.00       1.83       2.94       0.00       2.94        0.03     9.07   0.516
  sub22                      5.70       0.00       0.00       2.45       2.46       0.00       2.46        0.16    51.43   0.432
  sub23                      5.70       0.00       0.00       2.11       2.72       0.00       2.72        0.13    43.83   0.478
  sub60                      5.70       0.00       0.00       0.68       2.62       0.00       2.62        0.79    72.79   0.459
  sub61                      5.70       0.00       0.00       0.97       2.81       0.00       2.81        0.87    91.48   0.492
  sub62                      5.70       0.00       0.00       0.46       3.01       0.00       3.01        0.92    93.44   0.528
  sub63                      5.70       0.00       0.00       1.65       2.51       0.00       2.51        0.76    85.46   0.439
  sub64                      5.70       0.00       0.00       0.86       2.50       0.00       2.50        0.76    69.11   0.438
  sub65                      5.70       0.00       0.00       0.74       2.53       0.00       2.53        0.78    70.10   0.444
  sub66                      5.70       0.00       0.00       1.65       2.18       0.00       2.18        0.67    63.40   0.383
  sub67                      5.70       0.00       0.00       0.46       3.32       0.00       3.32        1.02   120.20   0.582
  sub68                      5.70       0.00       0.00       0.80       2.99       0.00       2.99        0.92   101.20   0.524
  sub69                      5.70       0.00       0.00       0.86       3.24       0.00       3.24        0.76   100.83   0.568
  sub70                      5.70       3.31       0.00       3.06       3.95       0.00       3.95        0.90    80.33   0.438
  sub71                      5.70       0.00       0.00       0.46       2.87       0.00       2.87        0.68    65.18   0.504
  sub72                      5.70       0.00       0.00       0.40       2.01       0.00       2.01        0.41    30.52   0.353
  sub73                      5.70       3.84       0.00       3.25       4.00       0.00       4.00        0.94    68.82   0.419
  sub74                      5.70       0.00       0.00       4.28       0.98       0.00       0.98        0.39    56.34   0.171
  
  
  ******************
  Node Depth Summary
  ******************
  
  ---------------------------------------------------------------------------------
                                 Average  Maximum  Maximum  Time of Max    Reported
                                   Depth    Depth      HGL   Occurrence   Max Depth
  Node                 Type       Meters   Meters   Meters  days hr:min      Meters
  ---------------------------------------------------------------------------------
  WS02001211           JUNCTION     0.65     0.77     5.60     0  03:01        0.77
  WS02001212           JUNCTION     0.38     0.48     5.54     0  03:01        0.48
  WS02001213           JUNCTION     0.61     0.72     5.49     0  03:01        0.72
  WS02003069           JUNCTION     0.44     0.54     5.13     0  03:03        0.54
  WS02003072           JUNCTION     0.51     0.60     4.97     0  03:03        0.60
  WS02003073           JUNCTION     0.30     0.37     4.43     0  03:04        0.37
  WS02003060           JUNCTION     0.39     0.48     5.41     0  03:02        0.48
  WS02003066           JUNCTION     0.24     0.29     5.85     0  02:38        0.29
  WS02003059           JUNCTION     0.67     0.78     5.46     0  03:02        0.78
  WS02003067           JUNCTION     0.58     0.69     6.01     0  02:38        0.69
  WS02004401           JUNCTION     0.69     0.83     6.83     0  02:34        0.83
  WS02004402           JUNCTION     0.72     0.86     6.82     0  02:34        0.86
  WS02004403           JUNCTION     0.74     0.88     6.81     0  02:34        0.88
  WS02004404           JUNCTION     0.82     0.95     6.80     0  02:34        0.95
  WS02004406           JUNCTION     0.82     0.94     6.77     0  02:35        0.94
  WS02004409           JUNCTION     0.51     0.65     6.42     0  02:37        0.65
  WS02004410           JUNCTION     0.53     0.66     6.38     0  02:38        0.66
  WS02004411           JUNCTION     0.54     0.67     6.35     0  02:38        0.67
  WS02004412           JUNCTION     0.56     0.68     6.32     0  02:38        0.68
  WS02004413           JUNCTION     0.71     0.84     6.31     0  02:38        0.84
  WS02004405           JUNCTION     0.81     0.94     6.79     0  02:34        0.94
  WS02006109           JUNCTION     0.77     0.96     7.58     0  02:29        0.96
  WS02006110           JUNCTION     0.76     0.91     7.50     0  02:29        0.91
  WS02006111           JUNCTION     0.23     0.28     6.99     0  02:31        0.28
  WS02006112           JUNCTION     0.86     1.03     6.91     0  02:34        1.02
  WS02006113           JUNCTION     0.35     0.45     7.34     0  02:30        0.45
  WS02006115           JUNCTION     0.58     0.73     6.87     0  02:33        0.73
  WS02006116           JUNCTION     0.66     0.81     6.85     0  02:34        0.81
  WS02006230           JUNCTION     0.75     1.00     7.74     0  02:29        1.00
  WS02006231           JUNCTION     0.50     0.67     7.79     0  02:29        0.67
  WS02006232           JUNCTION     0.64     0.79     7.83     0  02:30        0.79
  WS02006234           JUNCTION     0.57     0.73     7.89     0  02:30        0.73
  WS02006235           JUNCTION     0.60     0.76     7.92     0  02:29        0.76
  WS02006238           JUNCTION     0.63     0.79     7.93     0  02:29        0.79
  WS02006240           JUNCTION     0.54     0.70     8.00     0  03:20        0.70
  WS02006242           JUNCTION     0.60     0.77     8.04     0  03:20        0.77
  WS02006243           JUNCTION     0.48     0.67     8.09     0  03:20        0.67
  WS02006245           JUNCTION     0.46     0.64     8.12     0  03:20        0.64
  WS02006247           JUNCTION     0.48     0.65     8.15     0  03:20        0.65
  WS02006248           JUNCTION     0.42     0.59     8.17     0  03:20        0.59
  WS02006249           JUNCTION     0.45     0.60     8.20     0  03:20        0.60
  WS02006239           JUNCTION     0.59     0.75     7.96     0  02:29        0.75
  WS02006251           JUNCTION     0.45     0.63     8.30     0  03:20        0.63
  WS02006252           JUNCTION     0.40     0.58     8.83     0  05:10        0.58
  WS02006253           JUNCTION     0.47     0.65     8.30     0  03:20        0.65
  WS02006256           JUNCTION     1.03     2.35     9.28     0  00:00        1.20
  WS02004138           JUNCTION     0.15     0.19     7.44     0  01:40        0.19
  WS02004407           JUNCTION     0.23     0.29     6.60     0  02:35        0.29
  WS02006228           JUNCTION     0.77     0.99     7.64     0  02:29        0.99
  WS02006229           JUNCTION     0.75     0.99     7.68     0  02:29        0.99
  WS02006280           JUNCTION     0.05     0.14     8.41     0  02:19        0.14
  WS02006284           JUNCTION     0.35     0.48     8.88     0  02:18        0.48
  WS02006287           JUNCTION     0.08     0.21     9.16     0  02:18        0.21
  WSF200               JUNCTION     0.23     0.30     5.53     0  02:39        0.30
  HS02004901           JUNCTION     0.11     0.23    10.05     0  02:16        0.23
  HS02004881           JUNCTION     0.01     0.02     9.05     0  02:18        0.02
  HS02004876           JUNCTION     0.03     0.10     9.13     0  02:17        0.10
  HS02004870           JUNCTION     0.01     0.04     9.33     0  02:18        0.04
  HS02004862           JUNCTION     0.01     0.05     9.43     0  02:19        0.05
  HS02004856           JUNCTION     0.07     0.10     9.53     0  02:19        0.10
  HS02004852           JUNCTION     0.01     0.03     9.54     0  02:20        0.03
  HS02004848           JUNCTION     0.01     0.03     9.63     0  02:18        0.03
  HS02004842           JUNCTION     0.33     0.36     9.63     0  02:18        0.36
  HS02004837           JUNCTION     0.03     0.05     9.63     0  02:18        0.05
  HS02004830           JUNCTION     0.04     0.06     9.53     0  02:18        0.06
  HS02004824           JUNCTION     0.02     0.04     9.44     0  02:21        0.04
  HS02004817           JUNCTION     0.42     0.52     9.37     0  02:19        0.52
  HS02004807           JUNCTION     0.11     0.20     9.37     0  02:19        0.20
  HS02004802           JUNCTION     0.15     0.23     9.36     0  02:19        0.23
  HS02004799           JUNCTION     0.10     0.25     9.46     0  02:17        0.25
  HS02004792           JUNCTION     0.02     0.10     9.62     0  02:16        0.10
  HS02004788           JUNCTION     0.02     0.07     9.97     0  02:17        0.07
  HS02004785           JUNCTION     0.03     0.13    10.03     0  02:17        0.13
  HS02004777           JUNCTION     0.13     0.25    10.05     0  02:16        0.25
  HS02004770           JUNCTION     0.10     0.22    10.05     0  02:16        0.22
  HS02004480           JUNCTION     0.06     0.19     9.44     0  02:17        0.19
  HS02004479           JUNCTION     0.10     0.23     9.44     0  02:17        0.23
  HS02004478           JUNCTION     0.05     0.12     9.35     0  02:18        0.12
  YS02001745           JUNCTION     0.08     0.11     7.63     0  03:01        0.11
  YS02001748           JUNCTION     0.21     0.40     7.48     0  03:56        0.40
  YS02001751           JUNCTION     0.38     0.60     7.48     0  03:56        0.59
  YS02001754           JUNCTION     0.63     0.88     7.48     0  03:57        0.87
  YS02001762           JUNCTION     0.83     1.12     7.52     0  03:02        1.08
  YS02001765           JUNCTION     0.78     1.07     7.52     0  03:02        1.03
  YS02001767           JUNCTION     0.75     1.01     7.50     0  03:05        1.01
  YS02001770           JUNCTION     0.74     0.97     7.46     0  03:01        0.96
  YS02001774           JUNCTION     0.81     1.05     7.48     0  03:03        1.04
  YS02001779           JUNCTION     0.56     0.81     7.49     0  03:06        0.80
  YS02001882           JUNCTION     0.28     0.45     7.16     0  02:54        0.45
  YS02001884           JUNCTION     0.37     0.54     7.16     0  02:54        0.54
  YS02001759           JUNCTION     0.86     1.14     7.51     0  03:02        1.10
  YS02001887           JUNCTION     0.45     0.62     7.16     0  02:54        0.62
  YS02001890           JUNCTION     0.48     0.65     7.16     0  02:54        0.65
  YS02001898           JUNCTION     0.25     0.41     7.14     0  02:55        0.41
  YS02001901           JUNCTION     0.37     0.54     7.14     0  02:55        0.54
  YS02001904           JUNCTION     0.35     0.51     7.14     0  02:55        0.51
  YS02001907           JUNCTION     0.68     0.85     7.14     0  02:55        0.85
  YS02001910           JUNCTION     0.47     0.64     7.14     0  02:55        0.64
  YS02001915           JUNCTION     0.27     0.42     7.14     0  02:55        0.42
  YS02001918           JUNCTION     0.07     0.09     7.16     0  03:03        0.09
  YS02001619           JUNCTION     0.34     0.55     7.48     0  03:02        0.55
  YS02001629           JUNCTION     0.69     0.93     7.47     0  03:03        0.92
  YS02001641           JUNCTION     0.80     1.05     7.48     0  03:04        1.03
  YS02001644           JUNCTION     0.80     1.05     7.48     0  03:04        1.04
  YS02001652           JUNCTION     0.64     0.88     7.48     0  04:01        0.87
  YS02001655           JUNCTION     0.41     0.63     7.48     0  04:00        0.63
  YS02001920           JUNCTION     0.17     0.20     7.21     0  03:02        0.20
  YS02001923           JUNCTION     0.06     0.08     7.34     0  03:02        0.08
  YS02001926           JUNCTION     0.14     0.17     7.62     0  03:01        0.17
  YS02001929           JUNCTION     0.06     0.08     7.78     0  03:01        0.08
  YS02001658           JUNCTION     0.16     0.33     7.47     0  04:00        0.32
  YS02001661           JUNCTION     0.14     0.20     7.60     0  02:46        0.20
  YS02001664           JUNCTION     0.07     0.11     8.04     0  02:46        0.11
  YS02001622           JUNCTION     0.36     0.56     7.46     0  03:04        0.56
  YS02001633           JUNCTION     0.78     1.03     7.48     0  03:05        1.03
  YS02001649           JUNCTION     0.84     1.08     7.47     0  03:02        1.07
  YS02001757           JUNCTION     0.96     1.22     7.48     0  03:02        1.19
  YS02001895           JUNCTION     0.25     0.41     7.15     0  02:54        0.41
  YS02001625           JUNCTION     0.64     0.88     7.48     0  03:05        0.87
  YS02163301           JUNCTION     0.72     0.96     7.48     0  03:02        0.95
  YS02163601           JUNCTION     0.84     1.07     7.47     0  03:02        1.07
  YS02164001           JUNCTION     0.78     1.02     7.48     0  03:04        1.01
  YS02001647           JUNCTION     0.63     0.86     7.47     0  03:03        0.86
  YSB1154              JUNCTION     0.24     0.38     9.44     0  02:17        0.38
  YSB6556              JUNCTION     0.13     0.27     9.44     0  02:17        0.27
  YSB1174              JUNCTION     0.19     0.33     9.44     0  02:17        0.33
  YSB1171              JUNCTION     0.39     0.53     9.44     0  02:17        0.53
  YS02006553           JUNCTION     0.68     0.86     7.14     0  02:55        0.86
  YS02006561           JUNCTION     0.14     0.22     6.88     0  02:55        0.22
  YS02006556           JUNCTION     0.66     0.83     7.14     0  02:55        0.83
  YS02006558           JUNCTION     0.70     0.87     7.14     0  02:55        0.87
  YS02001783           JUNCTION     0.24     0.39     6.53     0  02:56        0.39
  YS02001784           JUNCTION     0.27     0.42     6.49     0  02:56        0.42
  YS02001786           JUNCTION     0.23     0.36     6.39     0  02:56        0.36
  YS02001788           JUNCTION     0.17     0.27     6.24     0  02:57        0.27
  YS02001790           JUNCTION     0.21     0.55     6.20     0  04:44        0.55
  YS02001791           JUNCTION     0.16     0.76     6.23     0  04:44        0.74
  YS02001793           JUNCTION     0.18     1.48     6.31     0  04:02        1.33
  WS02004139           JUNCTION     0.59     0.71     5.62     0  04:00        0.71
  WSC                  OUTFALL      0.30     0.37     1.04     0  03:04        0.37
  3                    OUTFALL      0.08     0.23     6.23     0  00:00        0.20
  4                    OUTFALL      0.03     0.10     7.10     0  03:20        0.10
  5                    OUTFALL      0.00     0.00     5.00     0  00:00        0.00
  JK-storage           STORAGE      1.36     5.37     6.17     0  04:44        5.37
  CC-storage           STORAGE      0.19     0.38     7.38     0  05:04        0.38
  XR-storage           STORAGE      6.51     7.72     5.72     0  04:21        7.72
  
  
  *******************
  Node Inflow Summary
  *******************
  
  -------------------------------------------------------------------------------------------------
                                  Maximum  Maximum                  Lateral       Total        Flow
                                  Lateral    Total  Time of Max      Inflow      Inflow     Balance
                                   Inflow   Inflow   Occurrence      Volume      Volume       Error
  Node                 Type           LPS      LPS  days hr:min    10^6 ltr    10^6 ltr     Percent
  -------------------------------------------------------------------------------------------------
  WS02001211           JUNCTION      7.35   380.83     0  04:00       0.207        6.69       0.325
  WS02001212           JUNCTION      0.00   376.04     0  04:01           0        6.66       0.180
  WS02001213           JUNCTION      0.00   374.14     0  04:01           0        6.65       0.266
  WS02003069           JUNCTION      0.32   829.75     0  03:02     0.00902        14.6       0.150
  WS02003072           JUNCTION      0.00   828.87     0  03:03           0        14.5       0.199
  WS02003073           JUNCTION      1.82   830.28     0  03:04      0.0514        14.6       0.216
  WS02003060           JUNCTION     16.53   829.80     0  03:02       0.466        14.6       0.148
  WS02003066           JUNCTION      0.00   511.14     0  02:38           0        7.51       0.057
  WS02003059           JUNCTION      0.00   372.46     0  04:01           0        6.64       0.434
  WS02003067           JUNCTION      0.00   511.08     0  02:38           0        7.51       0.121
  WS02004401           JUNCTION      0.00   518.86     0  02:32           0        7.74       0.270
  WS02004402           JUNCTION      0.00   517.01     0  02:32           0        7.72       0.256
  WS02004403           JUNCTION      0.00   516.87     0  02:34           0         7.7       0.233
  WS02004404           JUNCTION      0.16   516.76     0  02:34     0.00457        7.69       0.175
  WS02004406           JUNCTION      0.00   516.68     0  02:35           0        7.65       0.428
  WS02004409           JUNCTION      0.00   516.46     0  02:35           0        7.61       0.204
  WS02004410           JUNCTION      0.00   514.04     0  02:36           0         7.6       0.232
  WS02004411           JUNCTION      0.00   512.67     0  02:36           0        7.58       0.239
  WS02004412           JUNCTION      0.00   511.78     0  02:37           0        7.56       0.260
  WS02004413           JUNCTION      0.00   511.26     0  02:37           0        7.54       0.386
  WS02004405           JUNCTION      0.04   516.57     0  02:34     0.00107        7.67       0.266
  WS02006109           JUNCTION      1.23   522.86     0  02:29      0.0347        7.84       0.285
  WS02006110           JUNCTION      0.00   522.87     0  02:29           0        7.81       0.247
  WS02006111           JUNCTION      0.00   542.96     0  02:30           0        7.78       0.050
  WS02006112           JUNCTION      9.07   532.10     0  02:31      0.0252        7.81       0.350
  WS02006113           JUNCTION      0.00   523.22     0  02:30           0        7.79       0.122
  WS02006115           JUNCTION      0.00   528.64     0  02:32           0        7.78       0.253
  WS02006116           JUNCTION      0.00   522.35     0  02:32           0        7.76       0.245
  WS02006230           JUNCTION     10.28   395.19     0  05:20        0.29        6.96       0.198
  WS02006231           JUNCTION      0.00   385.08     0  05:15           0        6.68       0.141
  WS02006232           JUNCTION      0.00   385.24     0  05:15           0         6.7       0.233
  WS02006234           JUNCTION      0.00   386.36     0  05:15           0        6.71       0.108
  WS02006235           JUNCTION      0.00   387.74     0  05:13           0        6.74       0.156
  WS02006238           JUNCTION      0.00   332.13     0  03:10           0        5.04       0.125
  WS02006240           JUNCTION      0.00   333.00     0  03:10           0        5.03       0.220
  WS02006242           JUNCTION      0.00   336.22     0  04:41           0        5.04       0.276
  WS02006243           JUNCTION      0.00   339.60     0  04:41           0        5.03       0.022
  WS02006245           JUNCTION      0.00   341.52     0  04:40           0        5.04       0.178
  WS02006247           JUNCTION      0.00   346.38     0  05:11           0        5.05       0.134
  WS02006248           JUNCTION      0.00   352.63     0  05:10           0        5.05       0.075
  WS02006249           JUNCTION      0.00   413.21     0  03:11           0        5.52       0.186
  WS02006239           JUNCTION      0.00   332.96     0  03:10           0        5.03       0.185
  WS02006251           JUNCTION      0.08   413.34     0  03:11     0.00217        5.56       0.161
  WS02006252           JUNCTION      0.00   400.00     0  03:10           0        5.39       0.009
  WS02006253           JUNCTION      1.40    42.93     0  02:21     0.00327       0.173       2.114
  WS02006256           JUNCTION      0.00   600.00     0  00:00           0        4.27       0.048
  WS02004138           JUNCTION      0.00   379.97     0  05:40           0         6.5       0.051
  WS02004407           JUNCTION      0.00   516.53     0  02:35           0        7.62       0.093
  WS02006228           JUNCTION      0.00   521.63     0  02:29           0        7.82       0.196
  WS02006229           JUNCTION      0.00   521.60     0  02:29           0        7.83       0.146
  WS02006280           JUNCTION      0.00   204.51     0  02:19           0       0.877       0.008
  WS02006284           JUNCTION      0.10   204.49     0  02:18      0.0027       0.878       0.121
  WS02006287           JUNCTION      0.00   204.38     0  02:18           0       0.876       0.083
  WSF200               JUNCTION      0.00   511.16     0  02:38           0         7.5       0.054
  HS02004901           JUNCTION     11.24    11.24     0  02:10      0.0304      0.0305       6.109
  HS02004881           JUNCTION      4.53    38.69     0  02:17      0.0133       0.139       0.230
  HS02004876           JUNCTION      7.17    34.48     0  02:18      0.0254       0.126       0.418
  HS02004870           JUNCTION      7.98    27.46     0  02:18      0.0251       0.101       0.105
  HS02004862           JUNCTION      6.52    20.03     0  02:18      0.0307      0.0763       0.221
  HS02004856           JUNCTION      5.91    13.57     0  02:18      0.0189      0.0471       3.155
  HS02004852           JUNCTION      0.00     8.04     0  02:18           0      0.0282       0.179
  HS02004848           JUNCTION     12.95    12.95     0  02:21      0.0597      0.0597       0.073
  HS02004842           JUNCTION      0.00     5.36     0  02:31           0      0.0445      41.289
  HS02004837           JUNCTION     19.10    23.65     0  02:17       0.223       0.254       0.321
  HS02004830           JUNCTION      0.15    23.78     0  02:18     0.00423       0.245       0.506
  HS02004824           JUNCTION     14.53    38.13     0  02:21      0.0782       0.322       0.168
  HS02004817           JUNCTION      0.60    38.72     0  02:21      0.0169       0.338       5.187
  HS02004807           JUNCTION     15.02    52.36     0  02:20      0.0461       0.367       1.163
  HS02004802           JUNCTION      0.00    52.64     0  02:21           0       0.363       1.131
  HS02004799           JUNCTION     11.54   129.62     0  02:16      0.0373       0.454       0.501
  HS02004792           JUNCTION     51.71   118.36     0  02:16       0.163       0.417       0.098
  HS02004788           JUNCTION     17.31    68.93     0  02:16      0.0989       0.254       0.152
  HS02004785           JUNCTION      0.15    52.03     0  02:16     0.00423       0.158       0.307
  HS02004777           JUNCTION      0.03    52.35     0  02:14    0.000846       0.158       3.391
  HS02004770           JUNCTION     43.83    53.68     0  02:12        0.13       0.159       1.991
  HS02004480           JUNCTION      0.00   152.80     0  02:17           0       0.529       0.137
  HS02004479           JUNCTION      0.00    23.66     0  02:19           0      0.0877       0.838
  HS02004478           JUNCTION      0.00   204.38     0  02:18           0       0.877       0.072
  YS02001745           JUNCTION     72.80    72.80     0  03:01       0.793       0.793       0.098
  YS02001748           JUNCTION      0.04   147.28     0  03:54     0.00127       0.954      -0.022
  YS02001751           JUNCTION      0.01   191.85     0  03:58     0.00031       0.983       0.298
  YS02001754           JUNCTION      0.26   160.22     0  07:43     0.00733        1.04       0.807
  YS02001762           JUNCTION      0.00   132.06     0  03:01           0       0.924       1.506
  YS02001765           JUNCTION      0.00   119.21     0  03:02           0       0.917       1.583
  YS02001767           JUNCTION      0.54   149.09     0  03:05      0.0151       0.923       2.251
  YS02001770           JUNCTION     93.59   152.05     0  03:05       0.929        1.05       1.618
  YS02001774           JUNCTION      0.00    66.88     0  03:55           0       0.239       6.667
  YS02001779           JUNCTION      0.01    58.69     0  03:55    0.000141       0.102       5.782
  YS02001882           JUNCTION      0.00     4.09     0  02:08           0     0.00513      47.767
  YS02001884           JUNCTION      0.00    11.65     0  02:08           0      0.0205      30.763
  YS02001759           JUNCTION     91.52   213.92     0  03:01       0.867        1.76       0.914
  YS02001887           JUNCTION    120.65   120.65     0  02:43        1.04        1.05       0.685
  YS02001890           JUNCTION      0.00   119.93     0  02:45           0        1.02       0.768
  YS02001898           JUNCTION      0.00   119.39     0  02:47           0        1.01       0.214
  YS02001901           JUNCTION      0.00   119.26     0  02:49           0        1.01       0.544
  YS02001904           JUNCTION      0.00   118.70     0  02:51           0        1.01       0.506
  YS02001907           JUNCTION      0.00   216.06     0  02:57           0        2.16       1.027
  YS02001910           JUNCTION      0.00    98.85     0  03:01           0        1.16       0.877
  YS02001915           JUNCTION     65.20    98.32     0  03:01       0.679        1.17       0.388
  YS02001918           JUNCTION      0.00    33.37     0  03:02           0       0.488       0.226
  YS02001619           JUNCTION     63.40    63.40     0  03:00       0.669       0.671       0.115
  YS02001629           JUNCTION      0.00   122.65     0  03:53           0       0.683       0.820
  YS02001641           JUNCTION      0.00   152.32     0  03:00           0         1.4       0.941
  YS02001644           JUNCTION     69.15   215.90     0  03:00       0.761        2.14       0.738
  YS02001652           JUNCTION      0.00   128.39     0  03:46           0       0.911       0.946
  YS02001655           JUNCTION      0.15   192.67     0  03:49     0.00434       0.918       0.460
  YS02001920           JUNCTION      2.87    33.40     0  03:02      0.0809        0.49       0.412
  YS02001923           JUNCTION      0.04    30.53     0  03:01     0.00106        0.41       0.072
  YS02001926           JUNCTION      0.05    30.56     0  03:01     0.00147       0.411       0.517
  YS02001929           JUNCTION     30.52    30.52     0  03:01        0.41        0.41       0.070
  YS02001658           JUNCTION      0.00   142.44     0  04:04           0       0.911       0.032
  YS02001661           JUNCTION      0.00    85.46     0  02:46           0       0.758       0.096
  YS02001664           JUNCTION     85.46    85.46     0  02:46       0.758       0.758       0.022
  YS02001622           JUNCTION      0.00    89.77     0  03:55           0       0.675       0.433
  YS02001633           JUNCTION     70.30   150.70     0  02:49       0.783        1.42       1.346
  YS02001649           JUNCTION      0.00   317.07     0  02:43           0           3       0.809
  YS02001757           JUNCTION      0.00   537.11     0  03:01           0        5.53       1.310
  YS02001895           JUNCTION      0.00   119.49     0  02:48           0        1.02       0.366
  YS02001625           JUNCTION      0.00   140.60     0  03:55           0         0.7       2.331
  YS02163301           JUNCTION      0.00    98.86     0  03:21           0       0.657       1.947
  YS02163601           JUNCTION      0.11   161.44     0  03:04      0.0031         1.4       1.412
  YS02164001           JUNCTION      0.00   159.06     0  03:04           0        1.39       0.865
  YS02001647           JUNCTION      0.00   212.41     0  02:57           0        2.11       0.596
  YSB1154              JUNCTION     12.76    12.76     0  02:15      0.0452      0.0466       3.195
  YSB6556              JUNCTION      0.00    12.71     0  02:18           0      0.0477       2.682
  YSB1174              JUNCTION     12.81    12.81     0  02:10       0.033       0.034       3.925
  YSB1171              JUNCTION      0.00    23.66     0  02:17           0      0.0872       7.815
  YS02006553           JUNCTION      0.00   216.15     0  03:02           0        2.15       0.667
  YS02006561           JUNCTION      0.00   317.11     0  02:55           0        3.04       0.021
  YS02006556           JUNCTION      0.00   216.46     0  03:02           0        2.15       0.481
  YS02006558           JUNCTION    102.08   317.12     0  02:55       0.944        3.07       0.147
  YS02001783           JUNCTION      0.00   317.10     0  02:55           0        3.04       0.050
  YS02001784           JUNCTION      1.06   318.17     0  02:56      0.0299        3.07       0.082
  YS02001786           JUNCTION      0.06   318.20     0  02:56     0.00159        3.07       0.079
  YS02001788           JUNCTION      0.07   318.27     0  02:56       0.002        3.07       0.046
  YS02001790           JUNCTION      0.15   318.42     0  02:57     0.00437        3.07       0.058
  YS02001791           JUNCTION      0.00   318.41     0  02:57           0        3.07       0.030
  YS02001793           JUNCTION      0.00   826.70     0  03:59           0        3.13      -0.013
  WS02004139           JUNCTION      0.32   379.63     0  01:40     0.00905         6.5       0.396
  WSC                  OUTFALL       0.00   829.40     0  03:04           0        14.5       0.000
  3                    OUTFALL       0.00   597.65     0  00:00           0        2.54       0.000
  4                    OUTFALL       0.00   106.56     0  03:20           0       0.455       0.000
  5                    OUTFALL       0.00     0.00     0  00:00           0           0       0.000 ltr
  JK-storage           STORAGE       0.00   863.87     0  03:47           0        3.28     -24.225
  CC-storage           STORAGE       0.00   533.60     0  03:02           0        5.24      -2.747
  XR-storage           STORAGE     318.00   318.00     0  02:55        6.97        7.57      -0.002
  
  
  **********************
  Node Surcharge Summary
  **********************
  
  Surcharging occurs when water rises above the top of the highest conduit.
  ---------------------------------------------------------------------
                                               Max. Height   Min. Depth
                                   Hours       Above Crown    Below Rim
  Node                 Type      Surcharged         Meters       Meters
  ---------------------------------------------------------------------
  WS02006109           JUNCTION        2.30          0.137        1.683
  WS02006110           JUNCTION        0.04          0.002        1.848
  WS02006112           JUNCTION        0.22          0.025        1.655
  WS02006232           JUNCTION        2.79          0.094        1.386
  WS02006234           JUNCTION        0.06          0.010        1.230
  WS02006235           JUNCTION        1.16          0.050        1.240
  WS02006238           JUNCTION        1.78          0.066        1.364
  WS02006242           JUNCTION        1.15          0.043        0.777
  WS02006239           JUNCTION        0.16          0.009        1.281
  WS02006252           JUNCTION        2.92          0.185        0.915
  WS02006256           JUNCTION        0.01          1.050        0.000
  WS02006228           JUNCTION        2.13          0.162        2.038
  YS02001762           JUNCTION        1.54          0.121        1.029
  YS02001765           JUNCTION        0.11          0.073        1.027
  YS02001767           JUNCTION        0.01          0.012        1.018
  YS02001774           JUNCTION        0.50          0.054        0.996
  YS02001759           JUNCTION        2.63          0.143        1.067
  YS02001641           JUNCTION        0.40          0.045        1.055
  YS02001644           JUNCTION        0.53          0.047        0.873
  YS02001633           JUNCTION        0.01          0.007        1.053
  YS02001649           JUNCTION        2.12          0.081        0.969
  YS02001757           JUNCTION        3.32          0.216        0.994
  YS02163601           JUNCTION        1.87          0.072        1.008
  YS02164001           JUNCTION        0.05          0.019        1.081
  YS02001793           JUNCTION        0.32          0.483        2.117
  
  
  *********************
  Node Flooding Summary
  *********************
  
  Flooding refers to all water that overflows a node, whether it ponds or not.
  --------------------------------------------------------------------------
                                                             Total   Maximum
                                 Maximum   Time of Max       Flood    Ponded
                        Hours       Rate    Occurrence      Volume     Depth
  Node                 Flooded       LPS   days hr:min    10^6 ltr    Meters
  --------------------------------------------------------------------------
  WS02006256              0.01    406.11      0  00:00       0.001     0.000
  XR-storage              0.75    143.93      0  06:18       0.168     0.000
  
  
  **********************
  Storage Volume Summary
  **********************
  
  --------------------------------------------------------------------------------------------------
                         Average     Avg  Evap Exfil       Maximum     Max    Time of Max    Maximum
                          Volume    Pcnt  Pcnt  Pcnt        Volume    Pcnt     Occurrence    Outflow
  Storage Unit           1000 m3    Full  Loss  Loss       1000 m3    Full    days hr:min        LPS
  --------------------------------------------------------------------------------------------------
  JK-storage               0.068      23     0     0         0.270      93       0  04:44     661.29
  CC-storage               0.518       3     0     0         1.061       7       0  05:04     400.00
  XR-storage               0.781      84     0     0         0.926     100       0  04:21     379.97
  
  
  ***********************
  Outfall Loading Summary
  ***********************
  
  -----------------------------------------------------------
                         Flow       Avg       Max       Total
                         Freq      Flow      Flow      Volume
  Outfall Node           Pcnt       LPS       LPS    10^6 ltr
  -----------------------------------------------------------
  WSC                   99.99    594.67    829.40      14.525
  3                     82.07    155.42    597.65       2.542
  4                     45.01     40.58    106.56       0.455
  5                      0.00      0.00      0.00       0.000
  -----------------------------------------------------------
  System                56.77    790.67   1202.08      17.523
  
  
  ********************
  Link Flow Summary
  ********************
  
  -----------------------------------------------------------------------------
                                 Maximum  Time of Max   Maximum    Max/    Max/
                                  |Flow|   Occurrence   |Veloc|    Full    Full
  Link                 Type          LPS  days hr:min     m/sec    Flow   Depth
  -----------------------------------------------------------------------------
  WS02003066WSF200     CONDUIT    511.16     0  02:38      2.71    0.09    0.22
  WS02006287WS02006284 CONDUIT    204.40     0  02:18      1.62    0.09    0.22
  WS02006284WS02006280 CONDUIT    204.51     0  02:19      1.86    0.09    0.20
  WS02006280WS02006229 CONDUIT    204.51     0  02:19      2.99    0.04    0.14
  WS02006229WS02006228 CONDUIT    521.63     0  02:29      1.04    1.73    1.00
  WS02006256WS02006235 CONDUIT    177.52     0  00:01      2.73    1.88    1.00
  WS02006253WS02006251 CONDUIT     43.68     0  02:24      0.49    0.13    0.90
  WS02006252WS02006251 CONDUIT    400.16     0  03:10      3.18    1.47    1.00
  WS02006251WS02006249 CONDUIT    413.21     0  03:11      1.17    1.19    0.88
  WS02006249WS02006248 CONDUIT    352.63     0  05:10      1.20    1.93    0.84
  WS02006248WS02006247 CONDUIT    346.38     0  05:11      1.16    0.75    0.87
  WS02006247WS02006245 CONDUIT    341.52     0  04:40      1.13    2.71    0.91
  WS02006245WS02006243 CONDUIT    339.60     0  04:41      1.18    1.00    0.92
  WS02006243WS02006242 CONDUIT    336.22     0  04:41      0.99    0.72    0.98
  WS02006242WS02006240 CONDUIT    333.00     0  03:10      0.93    1.32    0.99
  WS02006240WS02006239 CONDUIT    332.96     0  03:10      0.97    1.05    1.00
  WS02006239WS02006238 CONDUIT    332.13     0  03:10      0.90    1.06    1.00
  WS02006238WS02006235 CONDUIT    331.29     0  03:10      1.32    0.74    1.00
  WS02006235WS02006234 CONDUIT    386.36     0  05:15      1.04    4.08    1.00
  WS02006234WS02006232 CONDUIT    385.24     0  05:15      1.17    0.78    1.00
  WS02006232WS02006231 CONDUIT    385.08     0  05:15      1.05    0.81    0.97
  WS02006231WS02006230 CONDUIT    384.91     0  05:20      1.35    5.84    0.92
  WS02006230WS02006229 CONDUIT    395.21     0  05:21      1.03    8.80    1.00
  WS02006228WS02006109 CONDUIT    521.63     0  02:29      1.04    2.28    1.00
  WS02006116WS02004401 CONDUIT    518.86     0  02:32      0.76    0.72    0.82
  WS02006115WS02006116 CONDUIT    522.35     0  02:32      0.87    0.67    0.74
  WS02006113WS02006111 CONDUIT    542.96     0  02:30      2.44    0.65    0.46
  WS02006112WS02006115 CONDUIT    528.64     0  02:32      0.75    0.31    0.86
  WS02006111WS02006112 CONDUIT    526.67     0  02:31      1.47    0.25    0.67
  WS02006110WS02006113 CONDUIT    523.22     0  02:30      1.24    0.48    0.78
  WS02006109WS02006110 CONDUIT    522.87     0  02:29      1.04    1.01    1.00
  WS02004411WS02004412 CONDUIT    511.78     0  02:37      0.90    0.73    0.68
  WS02004401WS02004402 CONDUIT    517.01     0  02:32      0.73    0.62    0.85
  WS02004413WS02003067 CONDUIT    511.08     0  02:38      1.08    0.22    0.58
  WS02004412WS02004413 CONDUIT    511.26     0  02:37      0.79    0.34    0.76
  WS02004410WS02004411 CONDUIT    512.67     0  02:36      0.92    0.70    0.67
  WS02004409WS02004410 CONDUIT    514.04     0  02:36      0.96    0.66    0.66
  WS02004407WS02004409 CONDUIT    516.46     0  02:35      1.47    0.18    0.47
  WS02004406WS02004407 CONDUIT    516.53     0  02:35      1.02    0.23    0.62
  WS02004405WS02004406 CONDUIT    516.68     0  02:35      0.67    1.02    0.94
  WS02004404WS02004405 CONDUIT    516.53     0  02:34      0.67    5.06    0.95
  WS02004403WS02004404 CONDUIT    516.60     0  02:34      0.69    0.37    0.91
  WS02004402WS02004403 CONDUIT    516.87     0  02:34      0.71    0.74    0.87
  WS02004139WS02001211 CONDUIT    373.48     0  04:00      0.80    0.47    0.57
  WS02004138WS02004139 CONDUIT    379.31     0  01:40      3.34    0.08    0.42
  WS02003067WS02003066 CONDUIT    511.14     0  02:38      1.17    0.16    0.41
  WS02001213WS02003059 CONDUIT    372.46     0  04:01      0.80    0.61    0.74
  WS02001212WS02001213 CONDUIT    374.14     0  04:01      1.30    0.58    0.44
  WS02001211WS02001212 CONDUIT    376.04     0  04:01      0.76    0.29    0.62
  WS02003072WS02003073 CONDUIT    828.46     0  03:04      1.65    1.79    0.46
  WS02003069WS02003072 CONDUIT    828.87     0  03:03      1.56    0.40    0.48
  WS02003060WS02003069 CONDUIT    829.43     0  03:02      1.81    0.32    0.42
  WS02003059WS02003060 CONDUIT    370.38     0  04:02      0.92    0.24    0.63
  HS02004901HS02004770 CONDUIT     10.24     0  02:15      0.05    0.04    0.32
  HS02004876HS02004881 CONDUIT     34.55     0  02:18      0.56    0.37    0.09
  HS02004870HS02004876 CONDUIT     27.44     0  02:18      0.39    0.02    0.10
  HS02004842HS02004848 CONDUIT      5.36     0  02:31      0.03    0.00    0.27
  HS02004837HS02004842 CONDUIT      5.55     0  02:31      0.41    0.00    0.29
  HS02004830HS02004837 CONDUIT     23.63     0  02:18      0.44    0.02    0.08
  HS02004824HS02004830 CONDUIT     23.78     0  02:19      0.48    0.03    0.07
  HS02004817HS02004824 CONDUIT     38.12     0  02:21      0.17    0.02    0.40
  HS02004770HS02004777 CONDUIT     52.32     0  02:14      0.23    0.10    0.33
  HS02004799HS02004480 CONDUIT    129.42     0  02:16      0.59    0.16    0.31
  HS02004792HS02004799 CONDUIT    118.28     0  02:16      0.68    0.07    0.25
  HS02004788HS02004792 CONDUIT     68.86     0  02:17      0.83    0.05    0.12
  HS02004785HS02004788 CONDUIT     51.94     0  02:17      0.51    0.39    0.14
  HS02004777HS02004785 CONDUIT     51.88     0  02:16      0.27    0.06    0.27
  HS02004480HS02004478 CONDUIT    152.75     0  02:17      0.96    0.64    0.23
  HS02004479HS02004480 CONDUIT     23.89     0  02:20      0.16    0.02    0.31
  HS02004862HS02004870 CONDUIT     19.99     0  02:19      0.47    0.02    0.06
  HS02004848HS02004852 CONDUIT      8.04     0  02:18      0.31    0.01    0.04
  HS02004856HS02004862 CONDUIT     13.53     0  02:19      0.34    0.01    0.06
  HS02004852HS02004856 CONDUIT      8.00     0  02:20      0.12    0.01    0.09
  HS02004802HS02004478 CONDUIT     53.02     0  02:22      0.30    0.05    0.25
  HS02004478WS02006287 CONDUIT    204.38     0  02:18      1.31    0.06    0.17
  HS02004817HS02004807 CONDUIT     39.27     0  02:23      0.11    0.02    0.51
  HS02004807HS02004802 CONDUIT     52.64     0  02:21      0.25    0.10    0.30
  YS02001759YS02001757 CONDUIT    219.59     0  03:05      0.28    0.16    1.00
  YS02001762YS02001759 CONDUIT    127.62     0  03:05      0.17    0.15    1.00
  YS02001765YS02001762 CONDUIT    132.06     0  03:01      0.23    0.12    1.00
  YS02001770YS02001767 CONDUIT    148.55     0  03:05      0.34    0.59    0.98
  YS02001774YS02001770 CONDUIT     66.88     0  03:55      0.14    0.04    0.97
  YS02001779YS02001774 CONDUIT     58.69     0  03:55      0.08    0.03    0.90
  YS02001649YS02001757 CONDUIT    318.92     0  03:03      0.41    0.19    1.00
  YS02001767YS02001765 CONDUIT    119.21     0  03:02      0.26    0.15    1.00
  YS02006561YS02001783 CONDUIT    317.10     0  02:55      1.79    0.16    0.38
  YS02001783YS02001784 CONDUIT    317.11     0  02:56      1.24    0.44    0.51
  YS02001784YS02001785 CONDUIT    318.15     0  02:56      1.32    0.74    0.48
  YS02001788YS02001790 CONDUIT    318.26     0  02:57      1.88    0.23    0.45
  YS02001790YS02001791 CONDUIT    318.41     0  02:57      2.17    0.35    0.79
  YS02001791YS02001793 CONDUIT    430.98     0  04:10      4.41    0.19    0.97
  YS02001910YS02001907 CONDUIT     98.94     0  03:01      0.49    0.06    0.74
  YS02001786YS02001788 CONDUIT    318.19     0  02:56      1.75    0.61    0.39
  YS02001915YS02001910 CONDUIT     98.85     0  03:01      0.44    0.05    0.53
  YS02001918YS02001915 CONDUIT     33.36     0  03:03      0.44    0.02    0.26
  YS02001923YS02001920 CONDUIT     30.53     0  03:02      0.45    0.01    0.14
  YS02001926YS02001923 CONDUIT     30.49     0  03:01      0.49    0.04    0.13
  YS02001929YS02001926 CONDUIT     30.51     0  03:01      0.52    0.01    0.13
  YS02001920YS02001918 CONDUIT     33.37     0  03:02      0.46    0.03    0.15
  YS02001629YS02163301 CONDUIT     98.86     0  03:21      0.13    0.12    0.94
  YS02001619YS02001622 CONDUIT     89.77     0  03:55      0.66    0.13    0.55
  YS02001622YS02001625 CONDUIT     99.70     0  03:55      0.25    0.05    0.72
  YS02001625YS02001629 CONDUIT    122.65     0  03:53      0.25    0.06    0.70
  YS02163301YS02001633 CONDUIT     81.83     0  02:49      0.11    0.08    0.98
  YS02163601YS02164001 CONDUIT    159.06     0  03:04      0.20    0.14    1.00
  YS02164001YS02001641 CONDUIT    152.32     0  03:00      0.19    0.21    1.00
  YS02001641YS02001644 CONDUIT    148.39     0  03:05      0.19    0.48    1.00
  YS02001647YS02001649 CONDUIT    233.71     0  03:04      0.31    0.12    0.93
  YS02006553YS02006556 CONDUIT    216.46     0  03:02      0.31    0.19    0.82
  YS02006556YS02006558 CONDUIT    216.69     0  03:02      0.31    0.17    0.85
  YSB6556YSB1171       CONDUIT     12.91     0  02:19      0.06    0.01    0.57
  YS02001907YS02006553 CONDUIT    216.15     0  03:02      0.26    0.25    0.93
  YS02006558YS02006561 CONDUIT    317.11     0  02:55      2.29    0.70    0.49
  YS02001633YS02163601 CONDUIT    161.33     0  03:04      0.21    0.17    1.00
  YS02001644YS02001647 CONDUIT    212.41     0  02:57      0.29    0.12    0.93
  YS02001745YS02001748 CONDUIT     72.79     0  03:01      1.40    0.03    0.22
  YS02001748YS02001751 CONDUIT    191.84     0  03:58      1.09    0.10    0.47
  YS02001751YS02001754 CONDUIT     96.85     0  02:39      0.97    0.05    0.71
  YS02001754YS02001757 CONDUIT    162.28     0  03:52      0.33    0.07    0.94
  YS02001882YS02001884 CONDUIT      4.09     0  02:08      0.06    0.00    0.47
  YS02001884YS02001887 CONDUIT     11.65     0  02:08      0.06    0.02    0.56
  YS02001890YS02001895 CONDUIT    119.49     0  02:48      0.29    0.06    0.53
  YS02001895YS02001898 CONDUIT    119.39     0  02:47      0.49    0.21    0.39
  YS02001898YS02001901 CONDUIT    119.26     0  02:49      0.33    0.08    0.47
  YS02001901YS02001904 CONDUIT    118.70     0  02:51      0.29    0.18    0.52
  YS02001904YS02001907 CONDUIT    118.89     0  02:52      0.21    0.04    0.68
  YS02001887YS02001890 CONDUIT    119.93     0  02:45      0.24    0.21    0.61
  YS02001652YS02001649 CONDUIT    180.88     0  03:48      0.33    0.09    0.94
  YS02001655YS02001652 CONDUIT    116.01     0  02:59      1.05    0.06    0.74
  YS02001658YS02001655 CONDUIT    192.52     0  03:49      1.26    0.08    0.46
  YS02001661YS02001658 CONDUIT     85.46     0  02:46      1.45    0.03    0.22
  YS02001664YS02001661 CONDUIT     85.46     0  02:46      1.11    0.03    0.15
  YSB1154YSB6556       CONDUIT     12.71     0  02:18      0.19    0.02    0.46
  YSB1174YSB1171       CONDUIT     11.85     0  02:11      0.06    0.02    0.58
  YSB1171HS02004479    CONDUIT     23.66     0  02:19      0.54    0.02    0.45
  HS02004881HS02006253 CONDUIT     38.68     0  02:18      1.66    0.01    0.23
  YS02001793JiankangQianchi CONDUIT    863.87     0  03:47     13.24    0.07    1.00
  YS02001757CaochengTiaoxuchi CONDUIT    533.60     0  03:02      1.15    0.23    0.69
  WSF200WS02003060     CONDUIT    511.07     0  02:38      1.74    0.11    0.31
  1                    CONDUIT    829.40     0  03:04      3.16    0.29    0.37
  2                    CONDUIT    106.56     0  03:20      4.93    0.26    0.34
  3                    CONDUIT    597.65     0  00:00     10.33    0.95    0.86
  4                    CONDUIT      0.00     0  00:00      0.00    0.00    0.00
  CC-Pump-1            PUMP       200.00     0  02:40              1.00
  CC-Pump-2            PUMP       200.00     0  02:23              1.00
  JK-Pump-1            PUMP       300.00     0  00:00              1.00
  JK-Pump-2            PUMP       300.00     0  00:00              1.00
  XR-Pump-1            PUMP        95.00     0  00:00              1.00
  XR-Pump-2            PUMP        95.00     0  00:00              1.00
  XR-Pump-3            PUMP        95.00     0  00:00              1.00
  XR-Pump-4            PUMP        95.00     0  00:50              1.00
  
  
  ***************************
  Flow Classification Summary
  ***************************
  
  -------------------------------------------------------------------------------------
                      Adjusted    ---------- Fraction of Time in Flow Class ---------- 
                       /Actual         Up    Down  Sub   Sup   Up    Down  Norm  Inlet 
  Conduit               Length    Dry  Dry   Dry   Crit  Crit  Crit  Crit  Ltd   Ctrl  
  -------------------------------------------------------------------------------------
  WS02003066WSF200        1.00   0.03  0.03  0.00  0.00  0.93  0.00  0.00  0.67  0.00
  WS02006287WS02006284    1.00   0.03  0.01  0.00  0.70  0.26  0.00  0.00  0.77  0.00
  WS02006284WS02006280    1.00   0.04  0.00  0.00  0.00  0.00  0.00  0.96  0.00  0.00
  WS02006280WS02006229    1.00   0.04  0.00  0.00  0.00  0.00  0.00  0.96  0.00  0.00
  WS02006229WS02006228    1.00   0.00  0.00  0.00  0.98  0.00  0.00  0.02  0.00  0.00
  WS02006256WS02006235    1.00   0.00  0.00  0.00  1.00  0.00  0.00  0.00  0.00  0.00
  WS02006253WS02006251    1.00   0.02  0.01  0.00  0.96  0.00  0.00  0.00  0.00  0.00
  WS02006252WS02006251    1.00   0.08  0.00  0.00  0.00  0.00  0.92  0.00  0.00  0.00
  WS02006251WS02006249    1.00   0.00  0.00  0.00  1.00  0.00  0.00  0.00  0.27  0.00
  WS02006249WS02006248    1.00   0.00  0.02  0.00  0.91  0.00  0.07  0.00  0.00  0.00
  WS02006248WS02006247    1.00   0.02  0.00  0.00  0.97  0.00  0.00  0.01  0.17  0.00
  WS02006247WS02006245    1.00   0.02  0.00  0.00  0.96  0.00  0.00  0.02  0.00  0.00
  WS02006245WS02006243    1.00   0.02  0.00  0.00  0.94  0.00  0.00  0.04  0.02  0.00
  WS02006243WS02006242    1.00   0.01  0.00  0.00  0.99  0.00  0.00  0.00  0.27  0.00
  WS02006242WS02006240    1.00   0.01  0.00  0.00  0.99  0.00  0.00  0.00  0.00  0.00
  WS02006240WS02006239    1.00   0.00  0.00  0.00  0.95  0.00  0.00  0.04  0.02  0.00
  WS02006239WS02006238    1.00   0.00  0.00  0.00  1.00  0.00  0.00  0.00  0.00  0.00
  WS02006238WS02006235    1.00   0.00  0.00  0.00  1.00  0.00  0.00  0.00  0.00  0.00
  WS02006235WS02006234    1.00   0.00  0.00  0.00  0.95  0.00  0.05  0.00  0.00  0.00
  WS02006234WS02006232    1.00   0.00  0.00  0.00  1.00  0.00  0.00  0.00  0.00  0.00
  WS02006232WS02006231    1.00   0.00  0.00  0.00  0.99  0.00  0.01  0.00  0.00  0.00
  WS02006231WS02006230    1.00   0.00  0.00  0.00  0.74  0.00  0.25  0.00  0.00  0.00
  WS02006230WS02006229    1.00   0.00  0.00  0.00  0.98  0.00  0.00  0.02  0.01  0.00
  WS02006228WS02006109    1.00   0.00  0.00  0.00  1.00  0.00  0.00  0.00  0.00  0.00
  WS02006116WS02004401    1.00   0.02  0.00  0.00  0.98  0.00  0.00  0.00  0.00  0.00
  WS02006115WS02006116    1.00   0.02  0.00  0.00  0.97  0.00  0.00  0.01  0.01  0.00
  WS02006113WS02006111    1.00   0.02  0.00  0.00  0.00  0.98  0.00  0.00  0.10  0.00
  WS02006112WS02006115    1.00   0.02  0.00  0.00  0.98  0.00  0.00  0.00  0.00  0.00
  WS02006111WS02006112    1.00   0.02  0.00  0.00  0.98  0.00  0.00  0.00  0.98  0.00
  WS02006110WS02006113    1.00   0.02  0.00  0.00  0.98  0.00  0.00  0.00  0.00  0.00
  WS02006109WS02006110    1.00   0.00  0.01  0.00  0.98  0.00  0.00  0.00  0.00  0.00
  WS02004411WS02004412    1.00   0.05  0.00  0.00  0.95  0.00  0.00  0.00  0.00  0.00
  WS02004401WS02004402    1.00   0.02  0.00  0.00  0.98  0.00  0.00  0.00  0.00  0.00
  WS02004413WS02003067    1.00   0.05  0.01  0.00  0.00  0.00  0.94  0.00  0.00  0.00
  WS02004412WS02004413    1.00   0.05  0.00  0.00  0.95  0.00  0.00  0.00  0.03  0.00
  WS02004410WS02004411    1.00   0.05  0.00  0.00  0.95  0.00  0.00  0.00  0.01  0.00
  WS02004409WS02004410    1.00   0.05  0.00  0.00  0.95  0.00  0.00  0.00  0.00  0.00
  WS02004407WS02004409    1.00   0.05  0.00  0.00  0.95  0.00  0.00  0.00  0.80  0.00
  WS02004406WS02004407    1.00   0.00  0.05  0.00  0.95  0.00  0.00  0.00  0.00  0.00
  WS02004405WS02004406    1.00   0.00  0.00  0.00  1.00  0.00  0.00  0.00  0.02  0.00
  WS02004404WS02004405    1.00   0.00  0.00  0.00  1.00  0.00  0.00  0.00  0.00  0.00
  WS02004403WS02004404    1.00   0.00  0.02  0.00  0.98  0.00  0.00  0.00  0.02  0.00
  WS02004402WS02004403    1.00   0.02  0.00  0.00  0.98  0.00  0.00  0.00  0.00  0.00
  WS02004139WS02001211    1.00   0.00  0.00  0.00  0.99  0.00  0.01  0.00  0.00  0.00
  WS02004138WS02004139    1.00   0.00  0.00  0.00  0.99  0.01  0.00  0.00  1.00  0.00
  WS02003067WS02003066    1.00   0.06  0.00  0.00  0.93  0.00  0.00  0.00  0.00  0.00
  WS02001213WS02003059    1.00   0.00  0.00  0.00  0.99  0.00  0.00  0.00  0.00  0.00
  WS02001212WS02001213    1.00   0.01  0.00  0.00  0.89  0.00  0.10  0.00  0.00  0.00
  WS02001211WS02001212    1.00   0.00  0.00  0.00  1.00  0.00  0.00  0.00  0.00  0.00
  WS02003072WS02003073    1.00   0.00  0.00  0.00  0.00  0.00  0.00  1.00  0.00  0.00
  WS02003069WS02003072    1.00   0.00  0.00  0.00  0.99  0.01  0.00  0.00  0.25  0.00
  WS02003060WS02003069    1.00   0.00  0.00  0.00  0.99  0.01  0.00  0.00  0.11  0.00
  WS02003059WS02003060    1.00   0.00  0.00  0.00  0.99  0.01  0.00  0.00  0.01  0.00
  HS02004901HS02004770    1.00   0.04  0.00  0.00  0.96  0.00  0.00  0.00  0.03  0.00
  HS02004876HS02004881    1.00   0.02  0.00  0.00  0.98  0.00  0.00  0.00  0.00  0.00
  HS02004870HS02004876    1.00   0.01  0.00  0.00  0.99  0.00  0.00  0.00  0.95  0.00
  HS02004842HS02004848    1.00   0.00  0.04  0.00  0.96  0.00  0.00  0.00  0.69  0.00
  HS02004837HS02004842    1.00   0.00  0.00  0.00  0.99  0.01  0.00  0.00  0.11  0.00
  HS02004830HS02004837    1.00   0.00  0.00  0.00  1.00  0.00  0.00  0.00  0.99  0.00
  HS02004824HS02004830    1.00   0.00  0.00  0.00  1.00  0.00  0.00  0.00  0.00  0.00
  HS02004817HS02004824    1.00   0.00  0.00  0.00  1.00  0.00  0.00  0.00  1.00  0.00
  HS02004770HS02004777    1.00   0.00  0.04  0.00  0.96  0.00  0.00  0.00  0.07  0.00
  HS02004799HS02004480    1.00   0.00  0.02  0.00  0.95  0.00  0.03  0.00  0.00  0.00
  HS02004792HS02004799    1.00   0.00  0.00  0.00  0.99  0.01  0.00  0.00  0.98  0.00
  HS02004788HS02004792    1.00   0.00  0.00  0.00  0.99  0.01  0.00  0.00  0.98  0.00
  HS02004785HS02004788    1.00   0.00  0.00  0.00  1.00  0.00  0.00  0.00  0.00  0.00
  HS02004777HS02004785    1.00   0.00  0.00  0.00  1.00  0.00  0.00  0.00  0.21  0.00
  HS02004480HS02004478    1.00   0.04  0.00  0.00  0.74  0.00  0.00  0.22  0.00  0.00
  HS02004479HS02004480    1.00   0.02  0.00  0.00  0.98  0.00  0.00  0.00  0.16  0.00
  HS02004862HS02004870    1.00   0.00  0.00  0.00  1.00  0.00  0.00  0.00  0.05  0.00
  HS02004848HS02004852    1.00   0.04  0.00  0.00  0.96  0.00  0.00  0.00  0.71  0.00
  HS02004856HS02004862    1.00   0.00  0.06  0.00  0.94  0.00  0.00  0.00  0.74  0.00
  HS02004852HS02004856    1.00   0.04  0.01  0.00  0.96  0.00  0.00  0.00  0.82  0.00
  HS02004802HS02004478    1.00   0.04  0.01  0.00  0.96  0.00  0.00  0.00  0.00  0.00
  HS02004478WS02006287    1.00   0.05  0.00  0.00  0.87  0.08  0.00  0.00  0.77  0.00
  HS02004817HS02004807    1.00   0.00  0.04  0.00  0.96  0.00  0.00  0.00  0.00  0.00
  HS02004807HS02004802    1.00   0.04  0.00  0.00  0.96  0.00  0.00  0.00  0.01  0.00
  YS02001759YS02001757    1.00   0.00  0.00  0.00  1.00  0.00  0.00  0.00  0.17  0.00
  YS02001762YS02001759    1.00   0.00  0.00  0.00  1.00  0.00  0.00  0.00  0.05  0.00
  YS02001765YS02001762    1.00   0.00  0.00  0.00  1.00  0.00  0.00  0.00  0.22  0.00
  YS02001770YS02001767    1.00   0.00  0.00  0.00  1.00  0.00  0.00  0.00  0.00  0.00
  YS02001774YS02001770    1.00   0.00  0.04  0.00  0.95  0.00  0.00  0.00  0.06  0.00
  YS02001779YS02001774    1.00   0.00  0.00  0.00  1.00  0.00  0.00  0.00  0.26  0.00
  YS02001649YS02001757    1.00   0.00  0.00  0.00  1.00  0.00  0.00  0.00  0.19  0.00
  YS02001767YS02001765    1.00   0.00  0.00  0.00  1.00  0.00  0.00  0.00  0.01  0.00
  YS02006561YS02001783    1.00   0.06  0.00  0.00  0.00  0.94  0.00  0.00  0.73  0.00
  YS02001783YS02001784    1.00   0.00  0.06  0.00  0.94  0.00  0.00  0.00  0.00  0.00
  YS02001784YS02001785    1.00   0.00  0.00  0.00  1.00  0.00  0.00  0.00  0.25  0.00
  YS02001788YS02001790    1.00   0.00  0.00  0.00  0.10  0.90  0.00  0.00  0.76  0.00
  YS02001790YS02001791    1.00   0.00  0.00  0.00  0.08  0.92  0.00  0.00  0.49  0.00
  YS02001791YS02001793    1.00   0.00  0.00  0.00  0.12  0.88  0.00  0.00  0.06  0.00
  YS02001910YS02001907    1.00   0.00  0.00  0.00  0.98  0.00  0.00  0.02  0.13  0.00
  YS02001786YS02001788    1.00   0.00  0.00  0.00  0.07  0.93  0.00  0.00  0.00  0.00
  YS02001915YS02001910    1.00   0.00  0.00  0.00  1.00  0.00  0.00  0.00  0.24  0.00
  YS02001918YS02001915    1.00   0.00  0.01  0.00  0.99  0.00  0.00  0.00  0.81  0.00
  YS02001923YS02001920    1.00   0.00  0.00  0.00  1.00  0.00  0.00  0.00  1.00  0.00
  YS02001926YS02001923    1.00   0.00  0.03  0.00  0.00  0.00  0.97  0.00  0.00  0.00
  YS02001929YS02001926    1.00   0.00  0.04  0.00  0.96  0.00  0.00  0.00  0.87  0.00
  YS02001920YS02001918    1.00   0.00  0.01  0.00  0.99  0.00  0.00  0.00  0.00  0.00
  YS02001629YS02163301    1.00   0.05  0.00  0.00  0.94  0.00  0.00  0.00  0.00  0.00
  YS02001619YS02001622    1.00   0.04  0.00  0.00  0.96  0.00  0.00  0.00  0.00  0.00
  YS02001622YS02001625    1.00   0.04  0.00  0.00  0.96  0.00  0.00  0.00  0.13  0.00
  YS02001625YS02001629    1.00   0.04  0.02  0.00  0.92  0.00  0.02  0.00  0.00  0.00
  YS02163301YS02001633    1.00   0.00  0.05  0.00  0.95  0.00  0.00  0.00  0.00  0.00
  YS02163601YS02164001    1.00   0.00  0.03  0.00  0.97  0.00  0.00  0.00  0.00  0.00
  YS02164001YS02001641    1.00   0.01  0.02  0.00  0.97  0.00  0.00  0.00  0.07  0.00
  YS02001641YS02001644    1.00   0.00  0.01  0.00  0.99  0.00  0.00  0.00  0.00  0.00
  YS02001647YS02001649    1.00   0.00  0.06  0.00  0.94  0.00  0.00  0.00  0.01  0.00
  YS02006553YS02006556    1.00   0.02  0.00  0.00  0.98  0.00  0.00  0.00  0.03  0.00
  YS02006556YS02006558    1.00   0.00  0.00  0.00  1.00  0.00  0.00  0.00  0.00  0.00
  YSB6556YSB1171          1.00   0.02  0.01  0.00  0.96  0.00  0.00  0.00  0.00  0.00
  YS02001907YS02006553    1.00   0.00  0.01  0.00  0.98  0.00  0.00  0.00  0.00  0.00
  YS02006558YS02006561    1.00   0.06  0.00  0.00  0.00  0.94  0.00  0.00  0.72  0.00
  YS02001633YS02163601    1.00   0.00  0.01  0.00  0.99  0.00  0.00  0.00  0.20  0.00
  YS02001644YS02001647    1.00   0.00  0.06  0.00  0.94  0.00  0.00  0.00  0.00  0.00
  YS02001745YS02001748    1.00   0.00  0.00  0.00  0.53  0.06  0.00  0.41  0.45  0.00
  YS02001748YS02001751    1.00   0.00  0.00  0.00  0.97  0.03  0.00  0.00  0.39  0.00
  YS02001751YS02001754    1.00   0.00  0.00  0.00  0.93  0.00  0.00  0.07  0.02  0.00
  YS02001754YS02001757    1.00   0.00  0.00  0.00  0.99  0.01  0.00  0.00  0.26  0.00
  YS02001882YS02001884    1.00   0.05  0.00  0.00  0.95  0.00  0.00  0.00  0.00  0.00
  YS02001884YS02001887    1.00   0.03  0.01  0.00  0.97  0.00  0.00  0.00  0.00  0.00
  YS02001890YS02001895    1.00   0.00  0.05  0.00  0.94  0.00  0.00  0.00  0.00  0.00
  YS02001895YS02001898    1.00   0.06  0.00  0.00  0.94  0.00  0.01  0.00  0.00  0.00
  YS02001898YS02001901    1.00   0.05  0.00  0.00  0.94  0.00  0.00  0.00  0.02  0.00
  YS02001901YS02001904    1.00   0.05  0.00  0.00  0.95  0.00  0.00  0.00  0.00  0.00
  YS02001904YS02001907    1.00   0.00  0.05  0.00  0.95  0.00  0.00  0.00  0.00  0.00
  YS02001887YS02001890    1.00   0.00  0.00  0.00  0.98  0.00  0.02  0.00  0.00  0.00
  YS02001652YS02001649    1.00   0.00  0.00  0.00  1.00  0.00  0.00  0.00  0.26  0.00
  YS02001655YS02001652    1.00   0.00  0.00  0.00  0.93  0.00  0.00  0.07  0.02  0.00
  YS02001658YS02001655    1.00   0.00  0.05  0.00  0.92  0.03  0.00  0.00  0.31  0.00
  YS02001661YS02001658    1.00   0.05  0.00  0.00  0.58  0.37  0.00  0.00  0.72  0.00
  YS02001664YS02001661    1.00   0.04  0.00  0.00  0.76  0.20  0.00  0.00  0.86  0.00
  YSB1154YSB6556          1.00   0.04  0.00  0.00  0.96  0.00  0.00  0.00  0.02  0.00
  YSB1174YSB1171          1.00   0.02  0.01  0.00  0.97  0.00  0.00  0.00  0.00  0.00
  YSB1171HS02004479       1.00   0.02  0.00  0.00  0.98  0.00  0.00  0.00  0.13  0.00
  HS02004881HS02006253    1.00   0.02  0.00  0.00  0.87  0.00  0.00  0.11  0.66  0.00
  YS02001793JiankangQianchi    1.00   0.00  0.00  0.00  0.36  0.64  0.00  0.00  0.16  0.00
  YS02001757CaochengTiaoxuchi    1.00   0.00  0.08  0.00  0.92  0.00  0.00  0.00  0.00  0.00
  WSF200WS02003060        1.00   0.00  0.03  0.00  0.63  0.34  0.00  0.00  0.26  0.00
  1                       1.00   0.00  0.00  0.00  0.00  1.00  0.00  0.00  0.43  0.00
  2                       1.00   0.54  0.00  0.00  0.00  0.45  0.00  0.00  0.13  0.00
  3                       1.00   0.18  0.00  0.00  0.00  0.82  0.00  0.00  0.06  0.00
  4                       1.00   1.00  0.00  0.00  0.00  0.00  0.00  0.00  0.00  0.00
  
  
  *************************
  Conduit Surcharge Summary
  *************************
  
  ----------------------------------------------------------------------------
                                                           Hours        Hours 
                         --------- Hours Full --------   Above Full   Capacity
  Conduit                Both Ends  Upstream  Dnstream   Normal Flow   Limited
  ----------------------------------------------------------------------------
  WS02006229WS02006228        2.12      2.59      2.12      4.81         2.12
  WS02006256WS02006235        5.64      5.64      7.83      1.71         0.01
  WS02006252WS02006251        1.54      1.54      2.92      2.56         0.01
  WS02006251WS02006249        0.01      0.01      0.01      1.53         0.01
  WS02006249WS02006248        0.01      0.01      0.01      5.02         0.01
  WS02006247WS02006245        0.01      0.01      0.01      5.21         0.01
  WS02006245WS02006243        0.01      0.01      0.01      0.02         0.01
  WS02006243WS02006242        0.01      0.01      1.15      0.01         0.01
  WS02006242WS02006240        0.01      0.01      1.91      3.03         0.01
  WS02006240WS02006239        0.05      0.05      0.16      0.14         0.01
  WS02006239WS02006238        1.53      1.53      1.78      0.22         0.07
  WS02006238WS02006235        1.47      1.47      2.53      0.01         0.01
  WS02006235WS02006234        0.06      0.06      1.16      5.66         0.01
  WS02006234WS02006232        0.22      0.22      2.79      0.01         0.01
  WS02006232WS02006231        0.01      0.01      2.79      0.01         0.01
  WS02006231WS02006230        0.01      0.01      0.01      5.62         0.01
  WS02006230WS02006229        3.93      4.41      3.93      5.69         3.93
  WS02006228WS02006109        2.30      3.28      2.30      5.53         2.30
  WS02006112WS02006115        0.01      0.01      0.22      0.01         0.01
  WS02006111WS02006112        0.01      0.01      5.01      0.01         0.01
  WS02006110WS02006113        0.01      0.01      2.92      0.01         0.01
  WS02006109WS02006110        0.04      0.04      3.28      0.04         0.01
  WS02004405WS02004406        0.01      0.01      0.01      0.12         0.01
  WS02004404WS02004405        0.01      0.01      0.01      5.60         0.01
  WS02003072WS02003073        0.01      0.01      0.01      5.15         0.01
  YS02001759YS02001757        2.63      2.63      3.32      0.01         0.01
  YS02001762YS02001759        1.54      1.54      2.63      0.01         0.01
  YS02001765YS02001762        0.11      0.11      1.54      0.01         0.01
  YS02001770YS02001767        0.01      0.01      0.01      0.01         0.01
  YS02001774YS02001770        0.01      0.01      0.50      0.01         0.01
  YS02001779YS02001774        0.01      0.01      0.50      0.01         0.01
  YS02001649YS02001757        2.12      2.12      3.32      0.01         0.01
  YS02001767YS02001765        0.01      0.01      0.11      0.01         0.01
  YS02001791YS02001793        0.01      0.01      0.46      0.01         0.01
  YS02163301YS02001633        0.01      0.01      0.14      0.01         0.01
  YS02163601YS02164001        0.05      0.05      1.87      0.01         0.01
  YS02164001YS02001641        0.05      0.05      0.40      0.01         0.01
  YS02001641YS02001644        0.38      0.40      0.53      0.01         0.07
  YS02001647YS02001649        0.01      0.01      2.12      0.01         0.01
  YS02001633YS02163601        0.01      0.01      1.87      0.01         0.01
  YS02001644YS02001647        0.01      0.01      0.53      0.01         0.01
  YS02001754YS02001757        0.01      0.01      3.32      0.01         0.01
  YS02001652YS02001649        0.01      0.01      2.12      0.01         0.01
  YS02001793JiankangQianchi        0.32      0.32      2.06      0.01         0.01
  YS02001757CaochengTiaoxuchi        0.01      0.01      3.32      0.01         0.01
  3                           0.01      0.01      0.01      0.01         0.01
  
  
  ***************
  Pumping Summary
  ***************
  
  ---------------------------------------------------------------------------------------------------------
                                                  Min       Avg       Max     Total     Power    % Time Off
                        Percent   Number of      Flow      Flow      Flow    Volume     Usage    Pump Curve
  Pump                 Utilized   Start-Ups       LPS       LPS       LPS  10^6 ltr     Kw-hr    Low   High
  ---------------------------------------------------------------------------------------------------------
  CC-Pump-1               64.21           4      0.00    147.26    200.00     2.711     11.13    0.0   68.9
  CC-Pump-2               64.20           5      0.00    144.79    200.00     2.676     10.93    0.0   62.3
  JK-Pump-1               89.35           4      0.00    146.33    300.00     2.589     40.14    0.0    0.0
  JK-Pump-2               78.72           5      0.00    111.86    300.00     1.681     28.82    0.0    0.0
  XR-Pump-1               80.84           7      0.00     68.68     95.00     1.568     14.81    0.0    0.0
  XR-Pump-2               82.97           7      0.00     65.27     95.00     1.511     14.72    0.0    0.0
  XR-Pump-3               91.49           6      0.00     75.53     95.00     1.938     17.46    0.0    0.0
  XR-Pump-4               87.22           9      0.00     58.63     95.00     1.482     14.49    0.0    0.0
  

  Analysis begun on:  Tue Dec 21 14:55:19 2021
  Analysis ended on:  Tue Dec 21 14:55:22 2021
  Total elapsed time: 00:00:03