
  EPA STORM WATER MANAGEMENT MODEL - VERSION 5.1 (Build 5.3.0.dev0)
  --------------------------------------------------------------

  WARNING 04: minimum elevation drop used for Conduit WS02004404WS02004405
  WARNING 03: negative offset ignored for Link YS02001904YS02001907
  
  *********************************************************
  NOTE: The summary statistics displayed in this report are
  based on results found at every computational time step,  
  not just on results from each reporting time step.
  *********************************************************
  
  ****************
  Analysis Options
  ****************
  Flow Units ............... LPS
  Process Models:
    Rainfall/Runoff ........ YES
    RDII ................... NO
    Snowmelt ............... NO
    Groundwater ............ NO
    Flow Routing ........... YES
    Ponding Allowed ........ NO
    Water Quality .......... NO
  Infiltration Method ...... HORTON
  Flow Routing Method ...... DYNWAVE
  Surcharge Method ......... EXTRAN
  Starting Date ............ 08/28/2015 08:00:00
  Ending Date .............. 08/28/2015 15:50:00
  Antecedent Dry Days ...... 8.0
  Report Time Step ......... 00:01:00
  Wet Time Step ............ 00:01:00
  Dry Time Step ............ 00:01:00
  Routing Time Step ........ 5.00 sec
  Variable Time Step ....... YES
  Maximum Trials ........... 8
  Number of Threads ........ 4
  Head Tolerance ........... 0.001500 m
  
  
  **************************        Volume         Depth
  Runoff Quantity Continuity     hectare-m            mm
  **************************     ---------       -------
  Total Precipitation ......         3.299         7.222
  Evaporation Loss .........         0.000         0.000
  Infiltration Loss ........         0.835         1.829
  Surface Runoff ...........         1.533         3.357
  Final Storage ............         0.931         2.037
  Continuity Error (%) .....        -0.018
  
  
  **************************        Volume        Volume
  Flow Routing Continuity        hectare-m      10^6 ltr
  **************************     ---------     ---------
  Dry Weather Inflow .......         0.616         6.165
  Wet Weather Inflow .......         1.532        15.323
  Groundwater Inflow .......         0.000         0.000
  RDII Inflow ..............         0.000         0.000
  External Inflow ..........         0.102         1.024
  External Outflow .........         1.775        17.749
  Flooding Loss ............         0.120         1.196
  Evaporation Loss .........         0.000         0.000
  Exfiltration Loss ........         0.000         0.000
  Initial Stored Volume ....         0.076         0.761
  Final Stored Volume ......         0.507         5.072
  Continuity Error (%) .....        -3.203
  
  
  *************************
  Highest Continuity Errors
  *************************
  Node HS02004842 (24.59%)
  Node YS02001774 (23.78%)
  Node YS02001884 (18.62%)
  Node JK-storage (-15.33%)
  Node YSB1171 (5.53%)
  
  
  ***************************
  Time-Step Critical Elements
  ***************************
  Link WS02006252WS02006251 (46.68%)
  Link 3 (41.65%)
  Link WS02006238WS02006235 (5.14%)
  Link WS02006280WS02006229 (1.96%)
  
  
  ********************************
  Highest Flow Instability Indexes
  ********************************
  Link WS02006113WS02006111 (39)
  Link WS02006111WS02006112 (22)
  Link YS02006558YS02006561 (17)
  Link YS02001779YS02001774 (15)
  Link YS02001774YS02001770 (15)
  
  
  *************************
  Routing Time Step Summary
  *************************
  Minimum Time Step           :     0.25 sec
  Average Time Step           :     0.88 sec
  Maximum Time Step           :     5.00 sec
  Percent in Steady State     :    -0.00
  Average Iterations per Step :     3.96
  Percent Not Converging      :    23.12
  
  
  ***************************
  Subcatchment Runoff Summary
  ***************************
  
  ------------------------------------------------------------------------------------------------------------------------------
                            Total      Total      Total      Total     Imperv       Perv      Total       Total     Peak  Runoff
                           Precip      Runon       Evap      Infil     Runoff     Runoff     Runoff      Runoff   Runoff   Coeff
  Subcatchment                 mm         mm         mm         mm         mm         mm         mm    10^6 ltr      LPS
  ------------------------------------------------------------------------------------------------------------------------------
  sub0                       7.22       0.00       0.00       0.51       5.45       0.00       5.45        0.00     1.87   0.755
  sub1                       7.22       0.00       0.00       0.79       5.17       0.00       5.17        0.03    10.07   0.716
  sub2                       7.22       0.00       0.00       2.67       3.64       0.00       3.64        0.03     8.96   0.504
  sub3                       7.22       0.00       0.00       2.67       3.61       0.00       3.61        0.08    18.60   0.499
  sub4                       7.22       0.00       0.00       0.79       5.03       0.00       5.03        0.10    21.02   0.696
  sub5                       7.22       0.00       0.00       0.51       5.40       0.00       5.40        0.06    17.91   0.748
  sub7                       7.22       0.00       0.00       0.65       5.32       0.00       5.32        0.02     6.25   0.736
  sub8                       7.22       0.00       0.00       0.65       5.31       0.00       5.31        0.03    11.07   0.735
  sub9                       7.22       0.00       0.00       0.65       5.31       0.00       5.31        0.03     8.21   0.735
  sub10                      7.22       0.00       0.00       0.58       5.35       0.00       5.35        0.06    17.84   0.741
  sub11                      7.22       0.00       0.00       0.58       5.37       0.00       5.37        0.06    20.80   0.743
  sub12                      7.22       0.00       0.00       0.94       5.09       0.00       5.09        0.04    17.39   0.705
  sub14                      7.22       0.00       0.00       0.65       5.30       0.00       5.30        0.05    16.06   0.734
  sub15                      7.22       0.00       0.00       2.17       4.08       0.00       4.08        0.07    21.83   0.565
  sub16                      7.22       0.00       0.00       2.38       3.92       0.00       3.92        0.04    15.34   0.543
  sub17                      7.22       0.00       0.00       2.31       3.98       0.00       3.98        0.03    12.43   0.551
  sub22                      7.22       0.00       0.00       3.11       3.33       0.00       3.33        0.21    71.06   0.461
  sub23                      7.22       0.00       0.00       2.67       3.68       0.00       3.68        0.18    60.47   0.510
  sub60                      7.22       0.00       0.00       0.87       3.78       0.00       3.78        1.14   112.07   0.523
  sub61                      7.22       0.00       0.00       1.23       3.98       0.00       3.98        1.23   138.95   0.551
  sub62                      7.22       0.00       0.00       0.58       4.28       0.00       4.28        1.32   142.49   0.593
  sub63                      7.22       0.00       0.00       2.09       3.52       0.00       3.52        1.07   129.10   0.488
  sub64                      7.22       0.00       0.00       1.08       3.61       0.00       3.61        1.10   106.54   0.500
  sub65                      7.22       0.00       0.00       0.94       3.66       0.00       3.66        1.13   108.21   0.507
  sub66                      7.22       0.00       0.00       2.09       3.14       0.00       3.14        0.96    97.28   0.435
  sub67                      7.22       0.00       0.00       0.58       4.65       0.00       4.65        1.44   180.98   0.644
  sub68                      7.22       0.00       0.00       1.01       4.22       0.00       4.22        1.30   153.18   0.584
  sub69                      7.22       0.00       0.00       1.08       4.50       0.00       4.50        1.05   150.30   0.622
  sub70                      7.22       4.59       0.00       4.02       5.68       0.00       5.68        1.30   127.11   0.481
  sub71                      7.22       0.00       0.00       0.58       4.12       0.00       4.12        0.97    99.87   0.570
  sub72                      7.22       0.00       0.00       0.51       3.01       0.00       3.01        0.61    48.25   0.416
  sub73                      7.22       5.52       0.00       4.33       5.90       0.00       5.90        1.39   110.44   0.463
  sub74                      7.22       0.00       0.00       5.42       1.35       0.00       1.35        0.54    83.48   0.187
  
  
  ******************
  Node Depth Summary
  ******************
  
  ---------------------------------------------------------------------------------
                                 Average  Maximum  Maximum  Time of Max    Reported
                                   Depth    Depth      HGL   Occurrence   Max Depth
  Node                 Type       Meters   Meters   Meters  days hr:min      Meters
  ---------------------------------------------------------------------------------
  WS02001211           JUNCTION     0.64     0.78     5.62     0  03:40        0.78
  WS02001212           JUNCTION     0.37     0.49     5.55     0  02:32        0.49
  WS02001213           JUNCTION     0.61     0.74     5.51     0  02:32        0.74
  WS02003069           JUNCTION     0.43     0.58     5.17     0  02:33        0.58
  WS02003072           JUNCTION     0.50     0.64     5.01     0  02:34        0.64
  WS02003073           JUNCTION     0.30     0.39     4.46     0  02:35        0.39
  WS02003060           JUNCTION     0.39     0.51     5.45     0  02:33        0.51
  WS02003066           JUNCTION     0.23     0.31     5.86     0  02:34        0.31
  WS02003059           JUNCTION     0.67     0.80     5.49     0  02:32        0.80
  WS02003067           JUNCTION     0.58     0.71     6.03     0  02:34        0.71
  WS02004401           JUNCTION     0.68     0.88     6.88     0  02:30        0.88
  WS02004402           JUNCTION     0.71     0.91     6.87     0  02:30        0.91
  WS02004403           JUNCTION     0.73     0.92     6.85     0  02:30        0.92
  WS02004404           JUNCTION     0.81     0.99     6.84     0  02:30        0.99
  WS02004406           JUNCTION     0.81     0.98     6.81     0  02:31        0.98
  WS02004409           JUNCTION     0.50     0.69     6.46     0  02:33        0.69
  WS02004410           JUNCTION     0.52     0.71     6.43     0  02:33        0.71
  WS02004411           JUNCTION     0.53     0.71     6.39     0  02:33        0.71
  WS02004412           JUNCTION     0.55     0.72     6.36     0  02:33        0.72
  WS02004413           JUNCTION     0.70     0.87     6.34     0  02:34        0.87
  WS02004405           JUNCTION     0.80     0.98     6.83     0  02:30        0.98
  WS02006109           JUNCTION     0.76     1.01     7.63     0  02:26        1.01
  WS02006110           JUNCTION     0.75     0.95     7.53     0  02:26        0.95
  WS02006111           JUNCTION     0.22     0.30     7.00     0  02:27        0.30
  WS02006112           JUNCTION     0.85     1.10     6.98     0  02:32        1.08
  WS02006113           JUNCTION     0.35     0.47     7.36     0  02:27        0.47
  WS02006115           JUNCTION     0.57     0.79     6.92     0  02:31        0.78
  WS02006116           JUNCTION     0.65     0.86     6.90     0  02:30        0.86
  WS02006230           JUNCTION     0.74     1.06     7.81     0  02:26        1.06
  WS02006231           JUNCTION     0.50     0.73     7.85     0  02:26        0.73
  WS02006232           JUNCTION     0.64     0.85     7.89     0  02:31        0.85
  WS02006234           JUNCTION     0.56     0.79     7.95     0  02:31        0.79
  WS02006235           JUNCTION     0.59     0.82     7.98     0  02:31        0.82
  WS02006238           JUNCTION     0.62     0.85     7.99     0  02:31        0.85
  WS02006240           JUNCTION     0.52     0.76     8.06     0  02:31        0.76
  WS02006242           JUNCTION     0.58     0.83     8.10     0  02:31        0.83
  WS02006243           JUNCTION     0.46     0.72     8.14     0  02:31        0.72
  WS02006245           JUNCTION     0.44     0.69     8.17     0  02:31        0.69
  WS02006247           JUNCTION     0.46     0.69     8.19     0  02:31        0.69
  WS02006248           JUNCTION     0.41     0.63     8.21     0  02:31        0.63
  WS02006249           JUNCTION     0.43     0.63     8.23     0  02:31        0.63
  WS02006239           JUNCTION     0.58     0.82     8.03     0  02:31        0.82
  WS02006251           JUNCTION     0.43     0.67     8.34     0  02:30        0.67
  WS02006252           JUNCTION     0.39     0.59     8.84     0  06:01        0.59
  WS02006253           JUNCTION     0.46     0.70     8.34     0  02:30        0.70
  WS02006256           JUNCTION     1.03     1.21     8.15     0  02:40        1.21
  WS02004138           JUNCTION     0.15     0.19     7.44     0  03:32        0.19
  WS02004407           JUNCTION     0.23     0.31     6.62     0  02:31        0.31
  WS02006228           JUNCTION     0.77     1.06     7.71     0  02:26        1.05
  WS02006229           JUNCTION     0.74     1.06     7.75     0  02:26        1.06
  WS02006280           JUNCTION     0.06     0.17     8.44     0  02:16        0.17
  WS02006284           JUNCTION     0.35     0.51     8.91     0  02:16        0.51
  WS02006287           JUNCTION     0.09     0.25     9.20     0  02:15        0.25
  WSF200               JUNCTION     0.22     0.32     5.55     0  02:40        0.32
  HS02004901           JUNCTION     0.12     0.26    10.08     0  02:13        0.26
  HS02004881           JUNCTION     0.01     0.03     9.06     0  02:15        0.03
  HS02004876           JUNCTION     0.04     0.11     9.14     0  02:11        0.11
  HS02004870           JUNCTION     0.01     0.05     9.34     0  02:16        0.05
  HS02004862           JUNCTION     0.02     0.06     9.44     0  02:17        0.06
  HS02004856           JUNCTION     0.08     0.11     9.54     0  02:16        0.11
  HS02004852           JUNCTION     0.01     0.03     9.55     0  02:17        0.03
  HS02004848           JUNCTION     0.01     0.03     9.63     0  02:16        0.03
  HS02004842           JUNCTION     0.33     0.36     9.63     0  02:16        0.36
  HS02004837           JUNCTION     0.03     0.05     9.63     0  02:16        0.05
  HS02004830           JUNCTION     0.04     0.07     9.54     0  02:16        0.07
  HS02004824           JUNCTION     0.02     0.05     9.45     0  02:19        0.05
  HS02004817           JUNCTION     0.43     0.55     9.40     0  02:16        0.55
  HS02004807           JUNCTION     0.12     0.23     9.40     0  02:16        0.23
  HS02004802           JUNCTION     0.15     0.26     9.39     0  02:16        0.26
  HS02004799           JUNCTION     0.11     0.30     9.51     0  02:14        0.30
  HS02004792           JUNCTION     0.03     0.12     9.64     0  02:13        0.12
  HS02004788           JUNCTION     0.02     0.09     9.99     0  02:14        0.09
  HS02004785           JUNCTION     0.04     0.16    10.06     0  02:14        0.16
  HS02004777           JUNCTION     0.14     0.28    10.08     0  02:13        0.28
  HS02004770           JUNCTION     0.11     0.25    10.08     0  02:13        0.25
  HS02004480           JUNCTION     0.07     0.23     9.47     0  02:14        0.23
  HS02004479           JUNCTION     0.11     0.27     9.47     0  02:14        0.27
  HS02004478           JUNCTION     0.05     0.15     9.38     0  02:15        0.15
  YS02001745           JUNCTION     0.35     0.64     8.16     0  04:57        0.63
  YS02001748           JUNCTION     0.73     1.15     8.23     0  04:57        1.08
  YS02001751           JUNCTION     0.91     1.79     8.67     0  03:43        1.26
  YS02001754           JUNCTION     1.16     1.92     8.53     0  03:29        1.52
  YS02001762           JUNCTION     1.36     1.78     8.18     0  05:08        1.74
  YS02001765           JUNCTION     1.31     1.77     8.22     0  03:32        1.68
  YS02001767           JUNCTION     1.28     1.82     8.31     0  03:32        1.71
  YS02001770           JUNCTION     1.27     1.91     8.41     0  03:32        1.81
  YS02001774           JUNCTION     1.34     2.00     8.42     0  03:32        1.91
  YS02001779           JUNCTION     1.09     1.68     8.37     0  03:31        1.68
  YS02001882           JUNCTION     0.33     0.56     7.27     0  02:55        0.56
  YS02001884           JUNCTION     0.42     0.66     7.27     0  02:56        0.66
  YS02001759           JUNCTION     1.39     1.82     8.18     0  05:08        1.76
  YS02001887           JUNCTION     0.50     0.74     7.27     0  02:56        0.74
  YS02001890           JUNCTION     0.53     0.77     7.27     0  02:54        0.76
  YS02001898           JUNCTION     0.30     0.52     7.26     0  02:55        0.52
  YS02001901           JUNCTION     0.42     0.65     7.26     0  02:54        0.65
  YS02001904           JUNCTION     0.40     0.62     7.25     0  02:58        0.62
  YS02001907           JUNCTION     0.73     0.97     7.25     0  02:50        0.96
  YS02001910           JUNCTION     0.52     0.75     7.25     0  02:51        0.75
  YS02001915           JUNCTION     0.32     0.53     7.25     0  02:59        0.53
  YS02001918           JUNCTION     0.10     0.19     7.25     0  02:57        0.19
  YS02001619           JUNCTION     0.88     1.50     8.43     0  05:08        1.35
  YS02001629           JUNCTION     1.23     1.84     8.39     0  05:08        1.77
  YS02001641           JUNCTION     1.33     1.84     8.27     0  06:07        1.76
  YS02001644           JUNCTION     1.34     1.81     8.24     0  05:08        1.75
  YS02001652           JUNCTION     1.18     2.08     8.67     0  03:37        1.54
  YS02001655           JUNCTION     0.94     2.20     9.05     0  03:37        1.28
  YS02001920           JUNCTION     0.20     0.26     7.27     0  02:57        0.26
  YS02001923           JUNCTION     0.08     0.10     7.36     0  03:01        0.10
  YS02001926           JUNCTION     0.16     0.20     7.65     0  03:01        0.20
  YS02001929           JUNCTION     0.08     0.10     7.80     0  03:01        0.10
  YS02001658           JUNCTION     0.68     1.37     8.52     0  05:02        1.00
  YS02001661           JUNCTION     0.46     0.73     8.14     0  05:07        0.73
  YS02001664           JUNCTION     0.10     0.25     8.18     0  05:10        0.21
  YS02001622           JUNCTION     0.90     1.51     8.42     0  05:08        1.38
  YS02001633           JUNCTION     1.32     1.90     8.36     0  05:08        1.81
  YS02001649           JUNCTION     1.37     1.87     8.26     0  03:37        1.75
  YS02001757           JUNCTION     1.49     1.92     8.18     0  05:08        1.87
  YS02001895           JUNCTION     0.30     0.52     7.26     0  02:54        0.52
  YS02001625           JUNCTION     1.18     1.78     8.38     0  05:08        1.69
  YS02163301           JUNCTION     1.26     1.86     8.38     0  05:08        1.77
  YS02163601           JUNCTION     1.37     1.92     8.32     0  05:08        1.83
  YS02164001           JUNCTION     1.31     1.84     8.30     0  05:08        1.75
  YS02001647           JUNCTION     1.17     1.69     8.30     0  03:37        1.55
  YSB1154              JUNCTION     0.24     0.42     9.48     0  02:14        0.42
  YSB6556              JUNCTION     0.14     0.31     9.48     0  02:14        0.31
  YSB1174              JUNCTION     0.20     0.37     9.48     0  02:14        0.37
  YSB1171              JUNCTION     0.39     0.57     9.48     0  02:14        0.57
  YS02006553           JUNCTION     0.73     0.97     7.25     0  02:52        0.97
  YS02006561           JUNCTION     0.16     0.29     6.95     0  02:49        0.29
  YS02006556           JUNCTION     0.70     0.94     7.25     0  02:48        0.93
  YS02006558           JUNCTION     0.75     0.98     7.25     0  02:48        0.98
  YS02001783           JUNCTION     0.30     0.68     6.82     0  03:06        0.68
  YS02001784           JUNCTION     0.33     0.73     6.80     0  03:06        0.73
  YS02001786           JUNCTION     0.29     0.73     6.76     0  03:06        0.73
  YS02001788           JUNCTION     0.23     0.74     6.72     0  03:06        0.74
  YS02001790           JUNCTION     0.30     1.05     6.69     0  03:06        1.04
  YS02001791           JUNCTION     0.24     1.52     6.99     0  03:00        1.17
  YS02001793           JUNCTION     0.28     2.43     7.26     0  02:56        1.78
  WS02004139           JUNCTION     0.59     0.73     5.64     0  03:40        0.73
  WSC                  OUTFALL      0.30     0.39     1.06     0  02:35        0.39
  3                    OUTFALL      0.09     0.21     6.21     0  02:40        0.21
  4                    OUTFALL      0.03     0.13     7.13     0  02:31        0.13
  5                    OUTFALL      0.00     0.00     5.00     0  00:00        0.00
  JK-storage           STORAGE      1.47     5.80     6.60     0  03:04        5.80
  CC-storage           STORAGE      0.72     1.10     8.10     0  05:55        1.10
  XR-storage           STORAGE      7.26     7.72     5.72     0  02:56        7.72
  
  
  *******************
  Node Inflow Summary
  *******************
  
  -------------------------------------------------------------------------------------------------
                                  Maximum  Maximum                  Lateral       Total        Flow
                                  Lateral    Total  Time of Max      Inflow      Inflow     Balance
                                   Inflow   Inflow   Occurrence      Volume      Volume       Error
  Node                 Type           LPS      LPS  days hr:min    10^6 ltr    10^6 ltr     Percent
  -------------------------------------------------------------------------------------------------
  WS02001211           JUNCTION      7.35   387.57     0  03:40       0.207        6.42       0.573
  WS02001212           JUNCTION      0.00   387.52     0  03:40           0        6.38       0.315
  WS02001213           JUNCTION      0.00   387.64     0  03:40           0        6.36       0.348
  WS02003069           JUNCTION      0.32   939.79     0  02:33     0.00902          14       0.201
  WS02003072           JUNCTION      0.00   939.51     0  02:34           0          14       0.246
  WS02003073           JUNCTION      1.82   941.52     0  02:34      0.0514          14       0.270
  WS02003060           JUNCTION     16.53   938.74     0  02:32       0.466          14       0.197
  WS02003066           JUNCTION      0.00   573.23     0  02:34           0        7.27       0.058
  WS02003059           JUNCTION      0.00   387.95     0  03:41           0        6.34       0.599
  WS02003067           JUNCTION      0.00   573.23     0  02:34           0        7.28       0.125
  WS02004401           JUNCTION      0.00   576.45     0  02:28           0        7.52       0.308
  WS02004402           JUNCTION      0.00   575.47     0  02:29           0        7.49       0.288
  WS02004403           JUNCTION      0.00   575.62     0  02:30           0        7.47       0.260
  WS02004404           JUNCTION      0.16   575.59     0  02:30     0.00457        7.46       0.194
  WS02004406           JUNCTION      0.00   575.67     0  02:30           0        7.42       0.471
  WS02004409           JUNCTION      0.00   575.43     0  02:31           0        7.38       0.226
  WS02004410           JUNCTION      0.00   574.25     0  02:31           0        7.36       0.250
  WS02004411           JUNCTION      0.00   573.56     0  02:32           0        7.35       0.253
  WS02004412           JUNCTION      0.00   573.31     0  02:33           0        7.33       0.271
  WS02004413           JUNCTION      0.00   573.27     0  02:33           0        7.31       0.401
  WS02004405           JUNCTION      0.04   575.49     0  02:30     0.00107        7.44       0.289
  WS02006109           JUNCTION      1.23   572.61     0  02:26      0.0347        7.62       0.269
  WS02006110           JUNCTION      0.00   572.57     0  02:26           0         7.6       0.284
  WS02006111           JUNCTION      0.00   598.28     0  02:27           0        7.56       0.070
  WS02006112           JUNCTION     12.43   585.39     0  02:27      0.0341        7.59       0.409
  WS02006113           JUNCTION      0.00   572.97     0  02:26           0        7.57       0.153
  WS02006115           JUNCTION      0.00   586.95     0  02:28           0        7.56       0.297
  WS02006116           JUNCTION      0.00   578.36     0  02:28           0        7.54       0.279
  WS02006230           JUNCTION     10.28   402.38     0  04:30        0.29        6.51       0.239
  WS02006231           JUNCTION      0.00   392.18     0  04:30           0        6.24       0.225
  WS02006232           JUNCTION      0.00   392.20     0  04:30           0        6.25       0.283
  WS02006234           JUNCTION      0.00   392.38     0  06:08           0        6.26       0.167
  WS02006235           JUNCTION      0.00   392.39     0  06:10           0        6.31       0.193
  WS02006238           JUNCTION      0.00   317.12     0  07:49           0        4.48       0.195
  WS02006240           JUNCTION      0.00   324.92     0  06:31           0        4.47       0.353
  WS02006242           JUNCTION      0.00   337.88     0  06:02           0        4.48       0.422
  WS02006243           JUNCTION      0.00   346.98     0  06:01           0        4.48       0.025
  WS02006245           JUNCTION      0.00   350.99     0  06:01           0        4.49       0.339
  WS02006247           JUNCTION      0.00   354.84     0  06:01           0         4.5       0.234
  WS02006248           JUNCTION      0.00   358.54     0  06:01           0         4.5       0.134
  WS02006249           JUNCTION      0.00   445.35     0  02:30           0        5.11       0.331
  WS02006239           JUNCTION      0.00   317.41     0  07:48           0        4.47       0.263
  WS02006251           JUNCTION      0.08   445.41     0  02:30     0.00217        5.16       0.273
  WS02006252           JUNCTION      0.00   400.00     0  02:30           0        4.93       0.011
  WS02006253           JUNCTION      1.87    56.79     0  02:15     0.00441       0.228       3.670
  WS02006256           JUNCTION      0.00   600.00     0  03:30           0        5.07       0.062
  WS02004138           JUNCTION      0.00   380.00     0  03:30           0        6.24       0.071
  WS02004407           JUNCTION      0.00   575.48     0  02:31           0        7.39       0.109
  WS02006228           JUNCTION      0.00   571.40     0  02:26           0         7.6       0.199
  WS02006229           JUNCTION      0.00   571.48     0  02:26           0        7.61       0.188
  WS02006280           JUNCTION      0.00   283.63     0  02:16           0        1.11       0.006
  WS02006284           JUNCTION      0.10   283.60     0  02:16      0.0027        1.12       0.100
  WS02006287           JUNCTION      0.00   283.48     0  02:15           0        1.11       0.065
  WSF200               JUNCTION      0.00   573.23     0  02:34           0        7.26       0.052
  HS02004901           JUNCTION     15.34    15.34     0  02:09       0.041      0.0412       4.460
  HS02004881           JUNCTION      6.25    55.33     0  02:15      0.0179        0.19       0.192
  HS02004876           JUNCTION     10.07    49.33     0  02:16      0.0344       0.173       0.309
  HS02004870           JUNCTION     11.07    39.43     0  02:15      0.0339       0.139       0.077
  HS02004862           JUNCTION      9.16    29.04     0  02:16      0.0396       0.105       0.163
  HS02004856           JUNCTION      8.21    19.93     0  02:15      0.0255      0.0668       2.204
  HS02004852           JUNCTION      0.00    12.20     0  02:16           0      0.0413       0.127
  HS02004848           JUNCTION     18.60    18.60     0  02:19      0.0812      0.0812       0.054
  HS02004842           JUNCTION      0.00     7.06     0  02:28           0      0.0529      32.609
  HS02004837           JUNCTION     24.19    30.02     0  02:15       0.238       0.278       0.293
  HS02004830           JUNCTION      0.15    30.15     0  02:16     0.00423       0.268       0.462
  HS02004824           JUNCTION     21.07    50.96     0  02:19       0.106       0.373       0.144
  HS02004817           JUNCTION      0.60    51.55     0  02:19      0.0169        0.39       4.468
  HS02004807           JUNCTION     20.80    70.59     0  02:17      0.0623       0.435       0.980
  HS02004802           JUNCTION      0.00    71.07     0  02:18           0       0.431       0.950
  HS02004799           JUNCTION     16.06   181.64     0  02:13      0.0505       0.596       0.385
  HS02004792           JUNCTION     71.34   165.81     0  02:13       0.218       0.546       0.074
  HS02004788           JUNCTION     23.50    96.42     0  02:13       0.117       0.329       0.119
  HS02004785           JUNCTION      0.15    73.21     0  02:13     0.00423       0.214       0.227
  HS02004777           JUNCTION      0.03    73.52     0  02:12    0.000846       0.214       2.481
  HS02004770           JUNCTION     60.47    74.61     0  02:10       0.175       0.215       1.462
  HS02004480           JUNCTION      0.00   214.33     0  02:14           0       0.698       0.109
  HS02004479           JUNCTION      0.00    33.36     0  02:15           0       0.115       0.639
  HS02004478           JUNCTION      0.00   283.47     0  02:15           0        1.11       0.054
  YS02001745           JUNCTION    112.07   219.85     0  04:55        1.14        1.29       0.353
  YS02001748           JUNCTION      0.04   386.93     0  03:29     0.00127        1.35       1.066
  YS02001751           JUNCTION      0.01   397.88     0  03:32     0.00031        1.19       1.667
  YS02001754           JUNCTION      0.26   197.35     0  02:46     0.00733        1.12       1.988
  YS02001762           JUNCTION      0.00   168.33     0  02:34           0        1.25       1.691
  YS02001765           JUNCTION      0.00   174.50     0  02:32           0        1.25       1.944
  YS02001767           JUNCTION      0.54   184.97     0  02:33      0.0151        1.27       2.848
  YS02001770           JUNCTION    142.64   188.64     0  02:41        1.32        1.35       2.337
  YS02001774           JUNCTION      0.00    57.94     0  03:32           0       0.105      31.201
  YS02001779           JUNCTION      0.01    58.15     0  03:32    0.000141      0.0464      45.795
  YS02001882           JUNCTION      0.00     5.20     0  02:07           0      0.0073      33.392
  YS02001884           JUNCTION      0.00    14.84     0  02:09           0      0.0279      22.880
  YS02001759           JUNCTION    138.99   305.81     0  02:34        1.23        2.44       0.939
  YS02001887           JUNCTION    181.43   182.96     0  02:42        1.45        1.46       0.516
  YS02001890           JUNCTION      0.00   182.50     0  02:42           0        1.43       0.576
  YS02001898           JUNCTION      0.00   183.40     0  02:45           0        1.42       0.176
  YS02001901           JUNCTION      0.00   182.89     0  02:49           0        1.42       0.414
  YS02001904           JUNCTION      0.00   184.39     0  02:45           0        1.42       0.385
  YS02001907           JUNCTION      0.00   344.08     0  02:50           0        3.07       0.743
  YS02001910           JUNCTION      0.00   155.36     0  02:58           0        1.66       0.642
  YS02001915           JUNCTION     99.89   152.86     0  03:02       0.973        1.66       0.299
  YS02001918           JUNCTION      0.00    52.35     0  03:03           0        0.69       0.194
  YS02001619           JUNCTION     97.28    97.28     0  02:57       0.962       0.962       1.210
  YS02001629           JUNCTION      0.00   166.02     0  03:37           0       0.893       3.254
  YS02001641           JUNCTION      0.00   268.86     0  02:35           0        1.92       1.110
  YS02001644           JUNCTION    106.58   372.98     0  02:35         1.1        2.99       0.877
  YS02001652           JUNCTION      0.00   208.03     0  03:09           0        1.02       2.078
  YS02001655           JUNCTION      0.15   390.53     0  03:09     0.00434        1.12       1.965
  YS02001920           JUNCTION      2.87    51.11     0  03:01      0.0809       0.693       0.332
  YS02001923           JUNCTION      0.04    48.24     0  03:01     0.00106       0.612       0.059
  YS02001926           JUNCTION      0.05    48.29     0  03:01     0.00147       0.613       0.413
  YS02001929           JUNCTION     48.25    48.25     0  03:01       0.612       0.612       0.058
  YS02001658           JUNCTION      0.00   354.57     0  03:07           0        1.21       1.377
  YS02001661           JUNCTION      0.00   215.85     0  03:40           0         1.2       0.659
  YS02001664           JUNCTION    129.10   129.10     0  02:43        1.07        1.13       0.055
  YS02001622           JUNCTION      0.00   178.33     0  02:41           0       0.953       3.289
  YS02001633           JUNCTION    108.41   269.55     0  02:34        1.13        1.98       1.625
  YS02001649           JUNCTION      0.00   551.35     0  02:34           0        3.92       0.955
  YS02001757           JUNCTION      0.00   927.44     0  02:33           0        7.36       1.268
  YS02001895           JUNCTION      0.00   182.45     0  02:45           0        1.42       0.284
  YS02001625           JUNCTION      0.00   166.81     0  03:37           0       0.927       4.290
  YS02163301           JUNCTION      0.00   165.53     0  02:34           0       0.875       2.800
  YS02163601           JUNCTION      0.11   271.81     0  02:34      0.0031        1.94       1.567
  YS02164001           JUNCTION      0.00   270.28     0  02:34           0        1.92       1.053
  YS02001647           JUNCTION      0.00   378.71     0  02:35           0        2.94       0.942
  YSB1154              JUNCTION     17.91    17.91     0  02:13      0.0612      0.0625       2.365
  YSB6556              JUNCTION      0.00    17.93     0  02:15           0      0.0634       2.007
  YSB1174              JUNCTION     17.39    17.39     0  02:08      0.0445      0.0454       2.907
  YSB1171              JUNCTION      0.00    33.25     0  02:14           0       0.114       5.851
  YS02006553           JUNCTION      0.00   340.72     0  02:50           0        3.05       0.481
  YS02006561           JUNCTION      0.00   520.08     0  02:46           0        4.32       0.006
  YS02006556           JUNCTION      0.00   337.74     0  02:50           0        3.06       0.348
  YS02006558           JUNCTION    154.06   495.73     0  02:48        1.32        4.35       0.118
  YS02001783           JUNCTION      0.00   490.12     0  02:50           0        4.32       0.041
  YS02001784           JUNCTION      1.06   487.11     0  02:50      0.0299        4.35       0.066
  YS02001786           JUNCTION      0.06   485.23     0  02:50     0.00159        4.35       0.063
  YS02001788           JUNCTION      0.07   484.57     0  02:50       0.002        4.35       0.037
  YS02001790           JUNCTION      0.15   494.46     0  03:00     0.00437        4.35       0.044
  YS02001791           JUNCTION      0.00   512.30     0  03:00           0        4.35       0.020
  YS02001793           JUNCTION      0.00   954.41     0  03:59           0        4.43       0.004
  WS02004139           JUNCTION      0.32   380.32     0  03:32     0.00905        6.25       0.603
  WSC                  OUTFALL       0.00   942.01     0  02:35           0          14       0.000
  3                    OUTFALL       0.00   520.28     0  02:40           0         3.2       0.000
  4                    OUTFALL       0.00   173.11     0  02:31           0       0.586       0.000
  5                    OUTFALL       0.00     0.00     0  00:00           0           0       0.000 ltr
  JK-storage           STORAGE       0.00  1166.46     0  04:00           0        4.58     -13.292
  CC-storage           STORAGE       0.00   928.51     0  02:34           0        7.26       0.550
  XR-storage           STORAGE     380.78   380.78     0  02:55        7.57        8.17      -0.003
  
  
  **********************
  Node Surcharge Summary
  **********************
  
  Surcharging occurs when water rises above the top of the highest conduit.
  ---------------------------------------------------------------------
                                               Max. Height   Min. Depth
                                   Hours       Above Crown    Below Rim
  Node                 Type      Surcharged         Meters       Meters
  ---------------------------------------------------------------------
  WS02006109           JUNCTION        2.32          0.187        1.633
  WS02006110           JUNCTION        0.42          0.037        1.813
  WS02006112           JUNCTION        0.52          0.097        1.583
  WS02006231           JUNCTION        0.22          0.017        1.513
  WS02006232           JUNCTION        2.52          0.154        1.326
  WS02006234           JUNCTION        0.40          0.070        1.170
  WS02006235           JUNCTION        1.49          0.110        1.180
  WS02006238           JUNCTION        1.91          0.127        1.303
  WS02006240           JUNCTION        0.36          0.055        1.335
  WS02006242           JUNCTION        1.54          0.098        0.722
  WS02006243           JUNCTION        0.20          0.008        0.762
  WS02006239           JUNCTION        0.66          0.076        1.214
  WS02006252           JUNCTION        2.51          0.193        0.907
  WS02006228           JUNCTION        2.21          0.230        1.970
  YS02001748           JUNCTION        0.01          0.074        1.116
  YS02001751           JUNCTION        3.73          0.794        0.406
  YS02001754           JUNCTION        4.60          0.873        0.277
  YS02001762           JUNCTION        5.39          0.779        0.371
  YS02001765           JUNCTION        5.34          0.766        0.334
  YS02001767           JUNCTION        5.23          0.818        0.212
  YS02001770           JUNCTION        5.17          0.884        0.036
  YS02001774           JUNCTION        5.39          0.998        0.052
  YS02001779           JUNCTION        4.38          0.680        0.000
  YS02001759           JUNCTION        5.43          0.816        0.394
  YS02001619           JUNCTION        2.93          0.499        0.111
  YS02001629           JUNCTION        2.93          0.462        0.008
  YS02001641           JUNCTION        5.38          0.837        0.263
  YS02001644           JUNCTION        5.38          0.809        0.111
  YS02001652           JUNCTION        4.79          1.045        0.085
  YS02001655           JUNCTION        3.93          1.200        0.000
  YS02001658           JUNCTION        0.03          0.374        0.926
  YS02001622           JUNCTION        3.25          0.514        0.106
  YS02001633           JUNCTION        5.30          0.882        0.178
  YS02001649           JUNCTION        5.40          0.868        0.182
  YS02001757           JUNCTION        5.49          0.922        0.288
  YS02001625           JUNCTION        5.10          0.780        0.000
  YS02163301           JUNCTION        5.22          0.861        0.169
  YS02163601           JUNCTION        5.40          0.920        0.160
  YS02164001           JUNCTION        5.34          0.840        0.260
  YS02001647           JUNCTION        5.03          0.693        0.207
  YS02001790           JUNCTION        0.43          0.248        0.909
  YS02001791           JUNCTION        0.48          0.723        1.197
  YS02001793           JUNCTION        0.58          1.425        1.175
  
  
  *********************
  Node Flooding Summary
  *********************
  
  Flooding refers to all water that overflows a node, whether it ponds or not.
  --------------------------------------------------------------------------
                                                             Total   Maximum
                                 Maximum   Time of Max       Flood    Ponded
                        Hours       Rate    Occurrence      Volume     Depth
  Node                 Flooded       LPS   days hr:min    10^6 ltr    Meters
  --------------------------------------------------------------------------
  YS02001779              0.01     22.42      0  03:32       0.000     0.000
  YS02001655              0.01    180.16      0  03:37       0.000     0.000
  YS02001625              0.01      4.24      0  05:08       0.000     0.000
  JK-storage              0.31    176.42      0  03:06       0.133     0.000
  XR-storage              3.01    350.90      0  03:20       1.062     0.000
  
  
  **********************
  Storage Volume Summary
  **********************
  
  --------------------------------------------------------------------------------------------------
                         Average     Avg  Evap Exfil       Maximum     Max    Time of Max    Maximum
                          Volume    Pcnt  Pcnt  Pcnt        Volume    Pcnt     Occurrence    Outflow
  Storage Unit           1000 m3    Full  Loss  Loss       1000 m3    Full    days hr:min        LPS
  --------------------------------------------------------------------------------------------------
  JK-storage               0.074      25     0     0         0.291     100       0  03:04     955.67
  CC-storage               2.017      13     0     0         3.072      20       0  05:55     400.00
  XR-storage               0.872      94     0     0         0.926     100       0  02:56     380.00
  
  
  ***********************
  Outfall Loading Summary
  ***********************
  
  -----------------------------------------------------------
                         Flow       Avg       Max       Total
                         Freq      Flow      Flow      Volume
  Outfall Node           Pcnt       LPS       LPS    10^6 ltr
  -----------------------------------------------------------
  WSC                   99.99    576.30    942.01      13.959
  3                     80.88    204.91    520.28       3.204
  4                     41.72     69.08    173.11       0.586
  5                      0.00      0.00      0.00       0.000
  -----------------------------------------------------------
  System                55.65    850.29   1576.92      17.749
  
  
  ********************
  Link Flow Summary
  ********************
  
  -----------------------------------------------------------------------------
                                 Maximum  Time of Max   Maximum    Max/    Max/
                                  |Flow|   Occurrence   |Veloc|    Full    Full
  Link                 Type          LPS  days hr:min     m/sec    Flow   Depth
  -----------------------------------------------------------------------------
  WS02003066WSF200     CONDUIT    573.23     0  02:34      2.77    0.10    0.24
  WS02006287WS02006284 CONDUIT    283.51     0  02:16      1.80    0.13    0.25
  WS02006284WS02006280 CONDUIT    283.63     0  02:16      2.04    0.12    0.23
  WS02006280WS02006229 CONDUIT    283.63     0  02:16      3.29    0.06    0.17
  WS02006229WS02006228 CONDUIT    571.40     0  02:26      1.14    1.89    1.00
  WS02006256WS02006235 CONDUIT    166.25     0  00:01      2.58    1.76    1.00
  WS02006253WS02006251 CONDUIT     57.63     0  02:16      0.55    0.17    0.97
  WS02006252WS02006251 CONDUIT    400.76     0  07:40      3.19    1.47    1.00
  WS02006251WS02006249 CONDUIT    445.35     0  02:30      1.19    1.28    0.93
  WS02006249WS02006248 CONDUIT    358.54     0  06:01      1.17    1.96    0.89
  WS02006248WS02006247 CONDUIT    354.84     0  06:01      1.14    0.77    0.94
  WS02006247WS02006245 CONDUIT    350.99     0  06:01      1.12    2.78    0.98
  WS02006245WS02006243 CONDUIT    346.98     0  06:01      1.17    1.03    0.99
  WS02006243WS02006242 CONDUIT    337.88     0  06:02      1.05    0.72    1.00
  WS02006242WS02006240 CONDUIT    324.92     0  06:31      0.99    1.29    1.00
  WS02006240WS02006239 CONDUIT    317.41     0  07:48      1.03    1.00    1.00
  WS02006239WS02006238 CONDUIT    317.12     0  07:49      0.90    1.01    1.00
  WS02006238WS02006235 CONDUIT    317.12     0  07:49      1.25    0.71    1.00
  WS02006235WS02006234 CONDUIT    392.38     0  06:08      1.08    4.14    1.00
  WS02006234WS02006232 CONDUIT    392.20     0  04:30      1.13    0.79    1.00
  WS02006232WS02006231 CONDUIT    392.18     0  04:30      1.07    0.82    1.00
  WS02006231WS02006230 CONDUIT    392.10     0  04:30      1.38    5.95    0.99
  WS02006230WS02006229 CONDUIT    402.40     0  04:31      1.05    8.96    1.00
  WS02006228WS02006109 CONDUIT    571.38     0  02:26      1.14    2.50    1.00
  WS02006116WS02004401 CONDUIT    576.45     0  02:28      0.79    0.79    0.87
  WS02006115WS02006116 CONDUIT    578.36     0  02:28      0.88    0.74    0.79
  WS02006113WS02006111 CONDUIT    598.28     0  02:27      2.52    0.72    0.48
  WS02006112WS02006115 CONDUIT    586.95     0  02:28      0.80    0.35    0.89
  WS02006111WS02006112 CONDUIT    577.50     0  02:27      1.59    0.27    0.68
  WS02006110WS02006113 CONDUIT    572.97     0  02:26      1.34    0.52    0.79
  WS02006109WS02006110 CONDUIT    572.57     0  02:26      1.14    1.10    1.00
  WS02004411WS02004412 CONDUIT    573.31     0  02:33      0.95    0.81    0.71
  WS02004401WS02004402 CONDUIT    575.47     0  02:29      0.78    0.69    0.89
  WS02004413WS02003067 CONDUIT    573.23     0  02:34      1.15    0.25    0.61
  WS02004412WS02004413 CONDUIT    573.27     0  02:33      0.86    0.38    0.80
  WS02004410WS02004411 CONDUIT    573.56     0  02:32      0.97    0.78    0.71
  WS02004409WS02004410 CONDUIT    574.25     0  02:31      0.99    0.74    0.70
  WS02004407WS02004409 CONDUIT    575.43     0  02:31      1.49    0.20    0.50
  WS02004406WS02004407 CONDUIT    575.48     0  02:31      1.08    0.26    0.64
  WS02004405WS02004406 CONDUIT    575.67     0  02:30      0.74    1.14    0.98
  WS02004404WS02004405 CONDUIT    575.45     0  02:30      0.84    5.64    0.98
  WS02004403WS02004404 CONDUIT    575.43     0  02:30      0.75    0.42    0.95
  WS02004402WS02004403 CONDUIT    575.62     0  02:30      0.77    0.83    0.91
  WS02004139WS02001211 CONDUIT    380.22     0  03:40      0.69    0.48    0.59
  WS02004138WS02004139 CONDUIT    380.00     0  03:32      2.94    0.08    0.43
  WS02003067WS02003066 CONDUIT    573.23     0  02:34      1.25    0.18    0.43
  WS02001213WS02003059 CONDUIT    387.95     0  03:41      0.67    0.64    0.76
  WS02001212WS02001213 CONDUIT    387.64     0  03:40      1.29    0.60    0.46
  WS02001211WS02001212 CONDUIT    387.52     0  03:40      0.76    0.30    0.63
  WS02003072WS02003073 CONDUIT    939.70     0  02:34      1.73    2.03    0.49
  WS02003069WS02003072 CONDUIT    939.51     0  02:34      1.62    0.45    0.51
  WS02003060WS02003069 CONDUIT    939.47     0  02:33      1.87    0.37    0.46
  WS02003059WS02003060 CONDUIT    388.42     0  03:41      0.91    0.25    0.66
  HS02004901HS02004770 CONDUIT     14.45     0  02:12      0.06    0.05    0.36
  HS02004876HS02004881 CONDUIT     49.56     0  02:15      0.73    0.53    0.10
  HS02004870HS02004876 CONDUIT     39.41     0  02:16      0.50    0.03    0.11
  HS02004842HS02004848 CONDUIT      7.06     0  02:28      0.04    0.00    0.28
  HS02004837HS02004842 CONDUIT      7.30     0  02:29      0.41    0.00    0.30
  HS02004830HS02004837 CONDUIT     30.00     0  02:16      0.49    0.03    0.09
  HS02004824HS02004830 CONDUIT     30.15     0  02:17      0.53    0.04    0.08
  HS02004817HS02004824 CONDUIT     50.95     0  02:19      0.17    0.02    0.43
  HS02004770HS02004777 CONDUIT     73.49     0  02:12      0.28    0.13    0.38
  HS02004799HS02004480 CONDUIT    181.38     0  02:14      0.70    0.23    0.37
  HS02004792HS02004799 CONDUIT    165.72     0  02:13      0.80    0.10    0.30
  HS02004788HS02004792 CONDUIT     96.34     0  02:14      0.94    0.06    0.15
  HS02004785HS02004788 CONDUIT     73.12     0  02:14      0.60    0.55    0.17
  HS02004777HS02004785 CONDUIT     73.06     0  02:13      0.34    0.09    0.31
  HS02004480HS02004478 CONDUIT    214.31     0  02:14      1.10    0.90    0.28
  HS02004479HS02004480 CONDUIT     33.64     0  02:16      0.16    0.03    0.36
  HS02004862HS02004870 CONDUIT     29.00     0  02:17      0.54    0.03    0.08
  HS02004848HS02004852 CONDUIT     12.20     0  02:16      0.36    0.01    0.05
  HS02004856HS02004862 CONDUIT     19.90     0  02:16      0.40    0.02    0.07
  HS02004852HS02004856 CONDUIT     12.17     0  02:17      0.17    0.01    0.10
  HS02004802HS02004478 CONDUIT     71.63     0  02:19      0.35    0.06    0.30
  HS02004478WS02006287 CONDUIT    283.48     0  02:15      1.50    0.08    0.21
  HS02004817HS02004807 CONDUIT     52.37     0  02:21      0.14    0.03    0.56
  HS02004807HS02004802 CONDUIT     71.07     0  02:18      0.30    0.14    0.34
  YS02001759YS02001757 CONDUIT    306.21     0  02:34      0.39    0.22    1.00
  YS02001762YS02001759 CONDUIT    170.92     0  02:34      0.22    0.20    1.00
  YS02001765YS02001762 CONDUIT    168.33     0  02:34      0.23    0.16    1.00
  YS02001770YS02001767 CONDUIT    184.44     0  02:33      0.31    0.73    1.00
  YS02001774YS02001770 CONDUIT     57.94     0  03:32      0.14    0.04    1.00
  YS02001779YS02001774 CONDUIT     58.14     0  03:32      0.08    0.03    1.00
  YS02001649YS02001757 CONDUIT    549.87     0  02:34      0.70    0.33    1.00
  YS02001767YS02001765 CONDUIT    174.50     0  02:32      0.26    0.22    1.00
  YS02006561YS02001783 CONDUIT    490.12     0  02:50      2.00    0.25    0.59
  YS02001783YS02001784 CONDUIT    486.05     0  02:50      1.43    0.67    0.88
  YS02001784YS02001785 CONDUIT    485.18     0  02:50      1.54    1.13    0.91
  YS02001788YS02001790 CONDUIT    494.30     0  03:00      2.08    0.36    0.97
  YS02001790YS02001791 CONDUIT    512.30     0  03:00      2.46    0.56    1.00
  YS02001791YS02001793 CONDUIT    623.88     0  02:56      5.01    0.27    1.00
  YS02001910YS02001907 CONDUIT    156.44     0  02:50      0.49    0.09    0.85
  YS02001786YS02001788 CONDUIT    484.50     0  02:50      2.02    0.93    0.92
  YS02001915YS02001910 CONDUIT    155.36     0  02:58      0.45    0.08    0.64
  YS02001918YS02001915 CONDUIT     55.10     0  03:02      0.44    0.03    0.36
  YS02001923YS02001920 CONDUIT     48.24     0  03:01      0.53    0.02    0.18
  YS02001926YS02001923 CONDUIT     48.20     0  03:01      0.58    0.07    0.16
  YS02001929YS02001926 CONDUIT     48.23     0  03:01      0.63    0.02    0.15
  YS02001920YS02001918 CONDUIT     52.35     0  03:03      0.53    0.05    0.22
  YS02001629YS02163301 CONDUIT    165.53     0  02:34      0.21    0.20    1.00
  YS02001619YS02001622 CONDUIT    178.33     0  02:41      0.71    0.26    1.00
  YS02001622YS02001625 CONDUIT    166.81     0  03:37      0.30    0.09    1.00
  YS02001625YS02001629 CONDUIT    166.02     0  03:37      0.28    0.08    1.00
  YS02163301YS02001633 CONDUIT    170.51     0  02:34      0.22    0.16    1.00
  YS02163601YS02164001 CONDUIT    270.28     0  02:34      0.34    0.24    1.00
  YS02164001YS02001641 CONDUIT    268.86     0  02:35      0.34    0.37    1.00
  YS02001641YS02001644 CONDUIT    274.85     0  02:35      0.35    0.89    1.00
  YS02001647YS02001649 CONDUIT    389.86     0  02:35      0.52    0.21    1.00
  YS02006553YS02006556 CONDUIT    337.74     0  02:50      0.45    0.29    0.93
  YS02006556YS02006558 CONDUIT    342.05     0  02:48      0.44    0.27    0.96
  YSB6556YSB1171       CONDUIT     18.25     0  02:17      0.07    0.02    0.63
  YS02001907YS02006553 CONDUIT    340.72     0  02:50      0.38    0.40    1.00
  YS02006558YS02006561 CONDUIT    520.08     0  02:46      2.79    1.15    0.63
  YS02001633YS02163601 CONDUIT    271.70     0  02:34      0.35    0.29    1.00
  YS02001644YS02001647 CONDUIT    378.71     0  02:35      0.50    0.22    1.00
  YS02001745YS02001748 CONDUIT    262.70     0  04:45      1.53    0.10    0.78
  YS02001748YS02001751 CONDUIT    397.87     0  03:32      1.18    0.20    1.00
  YS02001751YS02001754 CONDUIT    197.09     0  02:46      1.02    0.09    1.00
  YS02001754YS02001757 CONDUIT    204.79     0  02:46      0.33    0.08    1.00
  YS02001882YS02001884 CONDUIT      5.20     0  02:07      0.06    0.01    0.58
  YS02001884YS02001887 CONDUIT     14.84     0  02:09      0.06    0.02    0.67
  YS02001890YS02001895 CONDUIT    182.45     0  02:45      0.35    0.09    0.64
  YS02001895YS02001898 CONDUIT    183.40     0  02:45      0.50    0.32    0.50
  YS02001898YS02001901 CONDUIT    182.89     0  02:49      0.39    0.12    0.58
  YS02001901YS02001904 CONDUIT    184.39     0  02:45      0.35    0.29    0.63
  YS02001904YS02001907 CONDUIT    187.80     0  02:50      0.28    0.07    0.79
  YS02001887YS02001890 CONDUIT    182.50     0  02:42      0.30    0.31    0.73
  YS02001652YS02001649 CONDUIT    209.96     0  03:06      0.34    0.10    1.00
  YS02001655YS02001652 CONDUIT    208.03     0  03:09      1.09    0.10    1.00
  YS02001658YS02001655 CONDUIT    390.38     0  03:09      1.36    0.17    1.00
  YS02001661YS02001658 CONDUIT    288.93     0  03:33      1.59    0.11    0.83
  YS02001664YS02001661 CONDUIT    143.51     0  05:17      1.34    0.05    0.47
  YSB1154YSB6556       CONDUIT     17.93     0  02:15      0.19    0.03    0.52
  YSB1174YSB1171       CONDUIT     16.14     0  02:09      0.07    0.02    0.64
  YSB1171HS02004479    CONDUIT     33.36     0  02:15      0.54    0.02    0.50
  HS02004881HS02006253 CONDUIT     55.33     0  02:15      1.90    0.01    0.27
  YS02001793JiankangQianchi CONDUIT   1166.46     0  04:00     13.02    0.09    1.00
  YS02001757CaochengTiaoxuchi CONDUIT    928.51     0  02:34      2.15    0.41    1.00
  WSF200WS02003060     CONDUIT    573.02     0  02:34      1.87    0.13    0.35
  1                    CONDUIT    942.01     0  02:35      3.27    0.33    0.39
  2                    CONDUIT    173.11     0  02:31      5.63    0.41    0.45
  3                    CONDUIT    520.28     0  02:40      9.87    0.83    0.70
  4                    CONDUIT      0.00     0  00:00      0.00    0.00    0.00
  CC-Pump-1            PUMP       200.00     0  02:30              1.00
  CC-Pump-2            PUMP       200.00     0  02:20              1.00
  JK-Pump-1            PUMP       300.00     0  00:00              1.00
  JK-Pump-2            PUMP       300.00     0  03:00              1.00
  XR-Pump-1            PUMP        95.00     0  00:00              1.00
  XR-Pump-2            PUMP        95.00     0  00:00              1.00
  XR-Pump-3            PUMP        95.00     0  00:20              1.00
  XR-Pump-4            PUMP        95.00     0  00:50              1.00
  
  
  ***************************
  Flow Classification Summary
  ***************************
  
  -------------------------------------------------------------------------------------
                      Adjusted    ---------- Fraction of Time in Flow Class ---------- 
                       /Actual         Up    Down  Sub   Sup   Up    Down  Norm  Inlet 
  Conduit               Length    Dry  Dry   Dry   Crit  Crit  Crit  Crit  Ltd   Ctrl  
  -------------------------------------------------------------------------------------
  WS02003066WSF200        1.00   0.04  0.02  0.00  0.00  0.94  0.00  0.00  0.68  0.00
  WS02006287WS02006284    1.00   0.04  0.02  0.00  0.64  0.30  0.00  0.00  0.76  0.00
  WS02006284WS02006280    1.00   0.05  0.00  0.00  0.00  0.00  0.00  0.95  0.00  0.00
  WS02006280WS02006229    1.00   0.05  0.00  0.00  0.00  0.00  0.00  0.95  0.00  0.00
  WS02006229WS02006228    1.00   0.00  0.00  0.00  0.99  0.00  0.00  0.01  0.00  0.00
  WS02006256WS02006235    1.00   0.00  0.00  0.00  1.00  0.00  0.00  0.00  0.00  0.00
  WS02006253WS02006251    1.00   0.03  0.01  0.00  0.96  0.00  0.00  0.00  0.00  0.00
  WS02006252WS02006251    1.00   0.08  0.00  0.00  0.00  0.00  0.92  0.00  0.00  0.00
  WS02006251WS02006249    1.00   0.00  0.00  0.00  1.00  0.00  0.00  0.00  0.27  0.00
  WS02006249WS02006248    1.00   0.00  0.02  0.00  0.89  0.00  0.09  0.00  0.00  0.00
  WS02006248WS02006247    1.00   0.02  0.00  0.00  0.97  0.00  0.00  0.00  0.17  0.00
  WS02006247WS02006245    1.00   0.02  0.00  0.00  0.98  0.00  0.00  0.00  0.00  0.00
  WS02006245WS02006243    1.00   0.01  0.00  0.00  0.94  0.00  0.00  0.05  0.02  0.00
  WS02006243WS02006242    1.00   0.01  0.00  0.00  0.99  0.00  0.00  0.00  0.26  0.00
  WS02006242WS02006240    1.00   0.00  0.00  0.00  1.00  0.00  0.00  0.00  0.00  0.00
  WS02006240WS02006239    1.00   0.00  0.00  0.00  0.96  0.00  0.00  0.04  0.01  0.00
  WS02006239WS02006238    1.00   0.00  0.00  0.00  1.00  0.00  0.00  0.00  0.00  0.00
  WS02006238WS02006235    1.00   0.00  0.00  0.00  1.00  0.00  0.00  0.00  0.00  0.00
  WS02006235WS02006234    1.00   0.00  0.00  0.00  0.95  0.00  0.05  0.00  0.00  0.00
  WS02006234WS02006232    1.00   0.00  0.00  0.00  1.00  0.00  0.00  0.00  0.06  0.00
  WS02006232WS02006231    1.00   0.00  0.00  0.00  0.99  0.00  0.00  0.00  0.00  0.00
  WS02006231WS02006230    1.00   0.00  0.00  0.00  0.66  0.00  0.33  0.00  0.00  0.00
  WS02006230WS02006229    1.00   0.00  0.00  0.00  0.98  0.00  0.00  0.02  0.01  0.00
  WS02006228WS02006109    1.00   0.00  0.00  0.00  1.00  0.00  0.00  0.00  0.00  0.00
  WS02006116WS02004401    1.00   0.03  0.00  0.00  0.97  0.00  0.00  0.00  0.00  0.00
  WS02006115WS02006116    1.00   0.03  0.00  0.00  0.97  0.00  0.00  0.01  0.00  0.00
  WS02006113WS02006111    1.00   0.02  0.00  0.00  0.00  0.98  0.00  0.00  0.12  0.00
  WS02006112WS02006115    1.00   0.02  0.00  0.00  0.97  0.00  0.00  0.00  0.00  0.00
  WS02006111WS02006112    1.00   0.02  0.00  0.00  0.97  0.00  0.00  0.00  0.98  0.00
  WS02006110WS02006113    1.00   0.01  0.01  0.00  0.98  0.00  0.00  0.00  0.00  0.00
  WS02006109WS02006110    1.00   0.00  0.01  0.00  0.98  0.00  0.01  0.00  0.00  0.00
  WS02004411WS02004412    1.00   0.04  0.00  0.00  0.96  0.00  0.00  0.00  0.00  0.00
  WS02004401WS02004402    1.00   0.03  0.00  0.00  0.97  0.00  0.00  0.00  0.00  0.00
  WS02004413WS02003067    1.00   0.04  0.01  0.00  0.00  0.00  0.94  0.00  0.00  0.00
  WS02004412WS02004413    1.00   0.04  0.00  0.00  0.96  0.00  0.00  0.00  0.03  0.00
  WS02004410WS02004411    1.00   0.04  0.00  0.00  0.96  0.00  0.00  0.00  0.03  0.00
  WS02004409WS02004410    1.00   0.04  0.00  0.00  0.96  0.00  0.00  0.00  0.03  0.00
  WS02004407WS02004409    1.00   0.04  0.00  0.00  0.96  0.00  0.00  0.00  0.89  0.00
  WS02004406WS02004407    1.00   0.00  0.04  0.00  0.96  0.00  0.00  0.00  0.00  0.00
  WS02004405WS02004406    1.00   0.00  0.00  0.00  1.00  0.00  0.00  0.00  0.01  0.00
  WS02004404WS02004405    1.00   0.00  0.00  0.00  1.00  0.00  0.00  0.00  0.00  0.00
  WS02004403WS02004404    1.00   0.00  0.03  0.00  0.97  0.00  0.00  0.00  0.01  0.00
  WS02004402WS02004403    1.00   0.03  0.00  0.00  0.97  0.00  0.00  0.00  0.00  0.00
  WS02004139WS02001211    1.00   0.00  0.00  0.00  1.00  0.00  0.00  0.00  0.00  0.00
  WS02004138WS02004139    1.00   0.00  0.00  0.00  0.99  0.01  0.00  0.00  1.00  0.00
  WS02003067WS02003066    1.00   0.06  0.00  0.00  0.94  0.00  0.00  0.00  0.00  0.00
  WS02001213WS02003059    1.00   0.00  0.00  0.00  0.99  0.00  0.00  0.00  0.00  0.00
  WS02001212WS02001213    1.00   0.00  0.00  0.00  0.82  0.00  0.17  0.00  0.00  0.00
  WS02001211WS02001212    1.00   0.00  0.00  0.00  1.00  0.00  0.00  0.00  0.00  0.00
  WS02003072WS02003073    1.00   0.00  0.00  0.00  0.00  0.00  0.00  1.00  0.00  0.00
  WS02003069WS02003072    1.00   0.00  0.00  0.00  0.99  0.01  0.00  0.00  0.26  0.00
  WS02003060WS02003069    1.00   0.00  0.00  0.00  0.98  0.02  0.00  0.00  0.17  0.00
  WS02003059WS02003060    1.00   0.00  0.00  0.00  1.00  0.00  0.00  0.00  0.01  0.00
  HS02004901HS02004770    1.00   0.05  0.00  0.00  0.95  0.00  0.00  0.00  0.02  0.00
  HS02004876HS02004881    1.00   0.02  0.00  0.00  0.98  0.00  0.00  0.00  0.00  0.00
  HS02004870HS02004876    1.00   0.01  0.00  0.00  0.99  0.00  0.00  0.00  0.95  0.00
  HS02004842HS02004848    1.00   0.00  0.05  0.00  0.95  0.00  0.00  0.00  0.67  0.00
  HS02004837HS02004842    1.00   0.00  0.00  0.00  0.99  0.01  0.00  0.00  0.11  0.00
  HS02004830HS02004837    1.00   0.00  0.00  0.00  1.00  0.00  0.00  0.00  0.99  0.00
  HS02004824HS02004830    1.00   0.00  0.00  0.00  1.00  0.00  0.00  0.00  0.00  0.00
  HS02004817HS02004824    1.00   0.00  0.00  0.00  1.00  0.00  0.00  0.00  1.00  0.00
  HS02004770HS02004777    1.00   0.00  0.05  0.00  0.95  0.00  0.00  0.00  0.07  0.00
  HS02004799HS02004480    1.00   0.00  0.03  0.00  0.94  0.00  0.03  0.00  0.00  0.00
  HS02004792HS02004799    1.00   0.00  0.00  0.00  0.99  0.01  0.00  0.00  0.98  0.00
  HS02004788HS02004792    1.00   0.00  0.00  0.00  0.99  0.01  0.00  0.00  0.98  0.00
  HS02004785HS02004788    1.00   0.00  0.00  0.00  1.00  0.00  0.00  0.00  0.00  0.00
  HS02004777HS02004785    1.00   0.00  0.00  0.00  1.00  0.00  0.00  0.00  0.20  0.00
  HS02004480HS02004478    1.00   0.05  0.00  0.00  0.70  0.00  0.00  0.25  0.00  0.00
  HS02004479HS02004480    1.00   0.03  0.00  0.00  0.97  0.00  0.00  0.00  0.15  0.00
  HS02004862HS02004870    1.00   0.00  0.00  0.00  1.00  0.00  0.00  0.00  0.06  0.00
  HS02004848HS02004852    1.00   0.05  0.00  0.00  0.95  0.00  0.00  0.00  0.71  0.00
  HS02004856HS02004862    1.00   0.00  0.07  0.00  0.93  0.00  0.00  0.00  0.75  0.00
  HS02004852HS02004856    1.00   0.05  0.01  0.00  0.95  0.00  0.00  0.00  0.83  0.00
  HS02004802HS02004478    1.00   0.05  0.00  0.00  0.95  0.00  0.00  0.00  0.01  0.00
  HS02004478WS02006287    1.00   0.06  0.00  0.00  0.82  0.13  0.00  0.00  0.74  0.00
  HS02004817HS02004807    1.00   0.00  0.05  0.00  0.95  0.00  0.00  0.00  0.00  0.00
  HS02004807HS02004802    1.00   0.05  0.00  0.00  0.95  0.00  0.00  0.00  0.01  0.00
  YS02001759YS02001757    1.00   0.00  0.00  0.00  1.00  0.00  0.00  0.00  0.17  0.00
  YS02001762YS02001759    1.00   0.00  0.00  0.00  1.00  0.00  0.00  0.00  0.04  0.00
  YS02001765YS02001762    1.00   0.00  0.00  0.00  1.00  0.00  0.00  0.00  0.21  0.00
  YS02001770YS02001767    1.00   0.00  0.00  0.00  1.00  0.00  0.00  0.00  0.00  0.00
  YS02001774YS02001770    1.00   0.00  0.05  0.00  0.95  0.00  0.00  0.00  0.06  0.00
  YS02001779YS02001774    1.00   0.00  0.00  0.00  1.00  0.00  0.00  0.00  0.26  0.00
  YS02001649YS02001757    1.00   0.00  0.00  0.00  1.00  0.00  0.00  0.00  0.19  0.00
  YS02001767YS02001765    1.00   0.00  0.00  0.00  1.00  0.00  0.00  0.00  0.01  0.00
  YS02006561YS02001783    1.00   0.07  0.00  0.00  0.08  0.85  0.00  0.00  0.64  0.00
  YS02001783YS02001784    1.00   0.00  0.07  0.00  0.93  0.00  0.00  0.00  0.00  0.00
  YS02001784YS02001785    1.00   0.00  0.00  0.00  1.00  0.00  0.00  0.00  0.24  0.00
  YS02001788YS02001790    1.00   0.00  0.00  0.00  0.17  0.83  0.00  0.00  0.69  0.00
  YS02001790YS02001791    1.00   0.00  0.00  0.00  0.13  0.87  0.00  0.00  0.57  0.00
  YS02001791YS02001793    1.00   0.00  0.00  0.00  0.14  0.86  0.00  0.00  0.03  0.00
  YS02001910YS02001907    1.00   0.00  0.00  0.00  0.97  0.00  0.00  0.03  0.13  0.00
  YS02001786YS02001788    1.00   0.00  0.00  0.00  0.16  0.84  0.00  0.00  0.00  0.00
  YS02001915YS02001910    1.00   0.00  0.00  0.00  0.99  0.01  0.00  0.00  0.23  0.00
  YS02001918YS02001915    1.00   0.00  0.01  0.00  0.98  0.01  0.00  0.00  0.69  0.00
  YS02001923YS02001920    1.00   0.00  0.00  0.00  1.00  0.00  0.00  0.00  1.00  0.00
  YS02001926YS02001923    1.00   0.00  0.04  0.00  0.00  0.00  0.96  0.00  0.00  0.00
  YS02001929YS02001926    1.00   0.00  0.05  0.00  0.95  0.00  0.00  0.00  0.87  0.00
  YS02001920YS02001918    1.00   0.00  0.01  0.00  0.99  0.00  0.00  0.00  0.00  0.00
  YS02001629YS02163301    1.00   0.06  0.00  0.00  0.94  0.00  0.00  0.00  0.00  0.00
  YS02001619YS02001622    1.00   0.05  0.00  0.00  0.95  0.00  0.00  0.00  0.00  0.00
  YS02001622YS02001625    1.00   0.05  0.00  0.00  0.95  0.00  0.00  0.00  0.12  0.00
  YS02001625YS02001629    1.00   0.05  0.02  0.00  0.92  0.00  0.01  0.00  0.00  0.00
  YS02163301YS02001633    1.00   0.00  0.06  0.00  0.94  0.00  0.00  0.00  0.00  0.00
  YS02163601YS02164001    1.00   0.00  0.04  0.00  0.96  0.00  0.00  0.00  0.00  0.00
  YS02164001YS02001641    1.00   0.01  0.03  0.00  0.96  0.00  0.00  0.00  0.07  0.00
  YS02001641YS02001644    1.00   0.00  0.01  0.00  0.99  0.00  0.00  0.00  0.00  0.00
  YS02001647YS02001649    1.00   0.00  0.07  0.00  0.93  0.00  0.00  0.00  0.01  0.00
  YS02006553YS02006556    1.00   0.01  0.00  0.00  0.99  0.00  0.00  0.00  0.03  0.00
  YS02006556YS02006558    1.00   0.00  0.00  0.00  1.00  0.00  0.00  0.00  0.00  0.00
  YSB6556YSB1171          1.00   0.03  0.02  0.00  0.96  0.00  0.00  0.00  0.00  0.00
  YS02001907YS02006553    1.00   0.00  0.02  0.00  0.97  0.00  0.00  0.00  0.00  0.00
  YS02006558YS02006561    1.00   0.07  0.00  0.00  0.00  0.93  0.00  0.00  0.60  0.00
  YS02001633YS02163601    1.00   0.00  0.01  0.00  0.99  0.00  0.00  0.00  0.19  0.00
  YS02001644YS02001647    1.00   0.00  0.07  0.00  0.93  0.00  0.00  0.00  0.00  0.00
  YS02001745YS02001748    1.00   0.00  0.00  0.00  0.88  0.01  0.00  0.10  0.10  0.00
  YS02001748YS02001751    1.00   0.00  0.00  0.00  0.98  0.02  0.00  0.00  0.23  0.00
  YS02001751YS02001754    1.00   0.00  0.00  0.00  0.93  0.00  0.00  0.07  0.01  0.00
  YS02001754YS02001757    1.00   0.00  0.00  0.00  0.99  0.01  0.00  0.00  0.26  0.00
  YS02001882YS02001884    1.00   0.06  0.00  0.00  0.94  0.00  0.00  0.00  0.00  0.00
  YS02001884YS02001887    1.00   0.03  0.01  0.00  0.96  0.00  0.00  0.00  0.00  0.00
  YS02001890YS02001895    1.00   0.00  0.06  0.00  0.94  0.00  0.00  0.00  0.00  0.00
  YS02001895YS02001898    1.00   0.06  0.00  0.00  0.93  0.00  0.01  0.00  0.00  0.00
  YS02001898YS02001901    1.00   0.06  0.00  0.00  0.94  0.00  0.00  0.00  0.02  0.00
  YS02001901YS02001904    1.00   0.06  0.00  0.00  0.94  0.00  0.00  0.00  0.00  0.00
  YS02001904YS02001907    1.00   0.00  0.06  0.00  0.94  0.00  0.00  0.00  0.00  0.00
  YS02001887YS02001890    1.00   0.00  0.00  0.00  0.97  0.00  0.02  0.00  0.00  0.00
  YS02001652YS02001649    1.00   0.00  0.00  0.00  1.00  0.00  0.00  0.00  0.25  0.00
  YS02001655YS02001652    1.00   0.00  0.00  0.00  0.93  0.00  0.00  0.07  0.01  0.00
  YS02001658YS02001655    1.00   0.00  0.05  0.00  0.92  0.03  0.00  0.00  0.08  0.00
  YS02001661YS02001658    1.00   0.05  0.00  0.00  0.89  0.06  0.00  0.00  0.11  0.00
  YS02001664YS02001661    1.00   0.05  0.00  0.00  0.79  0.16  0.00  0.00  0.56  0.00
  YSB1154YSB6556          1.00   0.04  0.00  0.00  0.96  0.00  0.00  0.00  0.02  0.00
  YSB1174YSB1171          1.00   0.03  0.01  0.00  0.96  0.00  0.00  0.00  0.00  0.00
  YSB1171HS02004479       1.00   0.03  0.00  0.00  0.97  0.00  0.00  0.00  0.13  0.00
  HS02004881HS02006253    1.00   0.03  0.00  0.00  0.80  0.01  0.00  0.16  0.59  0.00
  YS02001793JiankangQianchi    1.00   0.00  0.00  0.00  0.45  0.55  0.00  0.00  0.27  0.00
  YS02001757CaochengTiaoxuchi    1.00   0.00  0.08  0.00  0.91  0.01  0.00  0.00  0.00  0.00
  WSF200WS02003060        1.00   0.00  0.04  0.00  0.65  0.31  0.00  0.00  0.40  0.00
  1                       1.00   0.00  0.00  0.00  0.00  1.00  0.00  0.00  0.45  0.00
  2                       1.00   0.58  0.00  0.00  0.00  0.42  0.00  0.00  0.09  0.00
  3                       1.00   0.19  0.00  0.00  0.00  0.81  0.00  0.00  0.34  0.00
  4                       1.00   1.00  0.00  0.00  0.00  0.00  0.00  0.00  0.00  0.00
  
  
  *************************
  Conduit Surcharge Summary
  *************************
  
  ----------------------------------------------------------------------------
                                                           Hours        Hours 
                         --------- Hours Full --------   Above Full   Capacity
  Conduit                Both Ends  Upstream  Dnstream   Normal Flow   Limited
  ----------------------------------------------------------------------------
  WS02006229WS02006228        2.20      2.49      2.20      4.16         2.20
  WS02006256WS02006235        5.72      5.73      7.38      2.24         0.01
  WS02006252WS02006251        1.64      1.64      2.51      2.28         0.01
  WS02006251WS02006249        0.01      0.01      0.01      1.69         0.01
  WS02006249WS02006248        0.01      0.01      0.01      4.27         0.01
  WS02006247WS02006245        0.01      0.01      0.01      4.65         0.01
  WS02006245WS02006243        0.01      0.01      0.20      0.09         0.01
  WS02006243WS02006242        0.25      0.25      1.54      0.01         0.01
  WS02006242WS02006240        0.36      0.36      1.94      2.49         0.01
  WS02006240WS02006239        0.55      0.55      0.66      0.01         0.01
  WS02006239WS02006238        1.79      1.79      1.91      0.16         0.16
  WS02006238WS02006235        1.72      1.72      2.29      0.01         0.01
  WS02006235WS02006234        0.40      0.40      1.49      5.72         0.01
  WS02006234WS02006232        0.66      0.66      2.52      0.01         0.01
  WS02006232WS02006231        0.22      0.22      2.52      0.01         0.01
  WS02006231WS02006230        0.01      0.01      0.28      5.78         0.01
  WS02006230WS02006229        3.33      3.89      3.33      5.87         3.33
  WS02006228WS02006109        2.32      2.96      2.32      4.86         2.32
  WS02006112WS02006115        0.01      0.01      0.52      0.01         0.01
  WS02006111WS02006112        0.01      0.01      4.24      0.01         0.01
  WS02006110WS02006113        0.01      0.01      2.69      0.01         0.01
  WS02006109WS02006110        0.42      0.42      2.96      0.42         0.01
  WS02004405WS02004406        0.01      0.01      0.01      0.47         0.01
  WS02004404WS02004405        0.01      0.01      0.01      5.67         0.01
  WS02003072WS02003073        0.01      0.01      0.01      4.93         0.01
  YS02001759YS02001757        5.43      5.43      5.49      0.01         0.01
  YS02001762YS02001759        5.39      5.39      5.43      0.01         0.02
  YS02001765YS02001762        5.34      5.34      5.39      0.01         0.01
  YS02001770YS02001767        5.22      5.24      5.23      0.01         0.70
  YS02001774YS02001770        5.17      5.17      5.39      0.01         0.01
  YS02001779YS02001774        4.38      4.38      5.39      0.01         0.01
  YS02001649YS02001757        5.40      5.40      5.49      0.01         0.01
  YS02001767YS02001765        5.23      5.23      5.34      0.01         0.02
  YS02001784YS02001785        0.01      0.01      0.01      0.70         0.01
  YS02001788YS02001790        0.01      0.01      0.43      0.01         0.01
  YS02001790YS02001791        0.43      0.43      0.48      0.01         0.01
  YS02001791YS02001793        0.48      0.48      0.63      0.01         0.01
  YS02001629YS02163301        5.16      5.17      5.22      0.01         0.01
  YS02001619YS02001622        2.93      2.93      3.25      0.01         0.01
  YS02001622YS02001625        3.25      3.25      5.10      0.01         0.01
  YS02001625YS02001629        2.93      2.93      5.10      0.01         0.01
  YS02163301YS02001633        5.22      5.22      5.37      0.01         0.01
  YS02163601YS02164001        5.34      5.34      5.40      0.01         0.01
  YS02164001YS02001641        5.34      5.34      5.38      0.01         0.01
  YS02001641YS02001644        5.37      5.38      5.38      0.01         0.99
  YS02001647YS02001649        5.03      5.03      5.40      0.01         0.01
  YS02001907YS02006553        0.73      0.73      0.97      0.01         0.01
  YS02006558YS02006561        0.01      0.01      0.01      0.46         0.01
  YS02001633YS02163601        5.30      5.30      5.40      0.01         0.01
  YS02001644YS02001647        5.03      5.03      5.38      0.01         0.01
  YS02001745YS02001748        0.01      0.01      0.01      0.01         0.01
  YS02001748YS02001751        0.98      0.98      3.72      0.01         0.01
  YS02001751YS02001754        3.73      3.73      4.60      0.01         0.01
  YS02001754YS02001757        5.02      5.02      5.49      0.01         0.01
  YS02001652YS02001649        5.05      5.05      5.40      0.01         0.01
  YS02001655YS02001652        3.93      3.93      4.79      0.01         0.01
  YS02001658YS02001655        0.03      0.03      3.93      0.01         0.01
  YS02001661YS02001658        0.01      0.01      0.03      0.01         0.01
  YS02001793JiankangQianchi        0.58      0.58      2.01      0.01         0.01
  YS02001757CaochengTiaoxuchi        2.08      2.08      5.49      0.01         0.01
  
  
  ***************
  Pumping Summary
  ***************
  
  ---------------------------------------------------------------------------------------------------------
                                                  Min       Avg       Max     Total     Power    % Time Off
                        Percent   Number of      Flow      Flow      Flow    Volume     Usage    Pump Curve
  Pump                 Utilized   Start-Ups       LPS       LPS       LPS  10^6 ltr     Kw-hr    Low   High
  ---------------------------------------------------------------------------------------------------------
  CC-Pump-1               61.19           5      0.00    146.88    200.00     2.482      6.13    0.0   15.1
  CC-Pump-2               56.93           6      0.00    156.39    200.00     2.452      6.28    0.0   14.1
  JK-Pump-1               85.10           7      0.00    161.77    300.00     2.796     43.46    0.0    0.0
  JK-Pump-2               74.46           6      0.00    146.68    300.00     2.271     30.15    0.0    0.0
  XR-Pump-1               87.23           9      0.00     66.31     95.00     1.596     10.96    0.0    0.0
  XR-Pump-2               87.24           4      0.00     78.85     95.00     1.910     13.59    0.0    0.0
  XR-Pump-3               74.45          11      0.00     62.56     95.00     1.339      9.99    0.0    0.0
  XR-Pump-4               76.58           8      0.00     65.99     95.00     1.396      9.88    0.0    0.0
  

  Analysis begun on:  Tue Dec 21 14:57:45 2021
  Analysis ended on:  Tue Dec 21 14:57:48 2021
  Total elapsed time: 00:00:03