
  EPA STORM WATER MANAGEMENT MODEL - VERSION 5.1 (Build 5.3.0.dev0)
  --------------------------------------------------------------

  WARNING 04: minimum elevation drop used for Conduit WS02004404WS02004405
  WARNING 03: negative offset ignored for Link YS02001904YS02001907
  
  *********************************************************
  NOTE: The summary statistics displayed in this report are
  based on results found at every computational time step,  
  not just on results from each reporting time step.
  *********************************************************
  
  ****************
  Analysis Options
  ****************
  Flow Units ............... LPS
  Process Models:
    Rainfall/Runoff ........ YES
    RDII ................... NO
    Snowmelt ............... NO
    Groundwater ............ NO
    Flow Routing ........... YES
    Ponding Allowed ........ NO
    Water Quality .......... NO
  Infiltration Method ...... HORTON
  Flow Routing Method ...... DYNWAVE
  Surcharge Method ......... EXTRAN
  Starting Date ............ 08/28/2015 08:00:00
  Ending Date .............. 08/28/2015 15:50:00
  Antecedent Dry Days ...... 8.0
  Report Time Step ......... 00:01:00
  Wet Time Step ............ 00:01:00
  Dry Time Step ............ 00:01:00
  Routing Time Step ........ 5.00 sec
  Variable Time Step ....... YES
  Maximum Trials ........... 8
  Number of Threads ........ 4
  Head Tolerance ........... 0.001500 m
  
  
  **************************        Volume         Depth
  Runoff Quantity Continuity     hectare-m            mm
  **************************     ---------       -------
  Total Precipitation ......         1.913         4.188
  Evaporation Loss .........         0.000         0.000
  Infiltration Loss ........         0.472         1.033
  Surface Runoff ...........         0.641         1.403
  Final Storage ............         0.800         1.752
  Continuity Error (%) .....        -0.017
  
  
  **************************        Volume        Volume
  Flow Routing Continuity        hectare-m      10^6 ltr
  **************************     ---------     ---------
  Dry Weather Inflow .......         0.616         6.165
  Wet Weather Inflow .......         0.641         6.405
  Groundwater Inflow .......         0.000         0.000
  RDII Inflow ..............         0.000         0.000
  External Inflow ..........         0.102         1.024
  External Outflow .........         1.398        13.982
  Flooding Loss ............         0.009         0.091
  Evaporation Loss .........         0.000         0.000
  Exfiltration Loss ........         0.000         0.000
  Initial Stored Volume ....         0.076         0.761
  Final Stored Volume ......         0.196         1.961
  Continuity Error (%) .....       -11.700
  
  
  *************************
  Highest Continuity Errors
  *************************
  Node JK-storage (-56.86%)
  Node HS02004842 (36.86%)
  Node YS02001884 (31.01%)
  Node YS02001774 (15.78%)
  Node YSB1171 (10.57%)
  
  
  ***************************
  Time-Step Critical Elements
  ***************************
  Link WS02006252WS02006251 (65.33%)
  Link 3 (25.20%)
  Link WS02006280WS02006229 (2.82%)
  Link WS02006238WS02006235 (2.40%)
  
  
  ********************************
  Highest Flow Instability Indexes
  ********************************
  Link WS02006113WS02006111 (52)
  Link WS02006111WS02006112 (22)
  Link YS02001754YS02001757 (3)
  Link YS02001751YS02001754 (3)
  Link YS02001762YS02001759 (3)
  
  
  *************************
  Routing Time Step Summary
  *************************
  Minimum Time Step           :     0.50 sec
  Average Time Step           :     0.99 sec
  Maximum Time Step           :     5.00 sec
  Percent in Steady State     :    -0.00
  Average Iterations per Step :     2.01
  Percent Not Converging      :     0.04
  
  
  ***************************
  Subcatchment Runoff Summary
  ***************************
  
  ------------------------------------------------------------------------------------------------------------------------------
                            Total      Total      Total      Total     Imperv       Perv      Total       Total     Peak  Runoff
                           Precip      Runon       Evap      Infil     Runoff     Runoff     Runoff      Runoff   Runoff   Coeff
  Subcatchment                 mm         mm         mm         mm         mm         mm         mm    10^6 ltr      LPS
  ------------------------------------------------------------------------------------------------------------------------------
  sub0                       4.19       0.00       0.00       0.29       2.63       0.00       2.63        0.00     0.86   0.628
  sub1                       4.19       0.00       0.00       0.46       2.47       0.00       2.47        0.02     4.27   0.591
  sub2                       4.19       0.00       0.00       1.55       1.74       0.00       1.74        0.02     3.73   0.414
  sub3                       4.19       0.00       0.00       1.55       1.70       0.00       1.70        0.04     7.55   0.407
  sub4                       4.19       0.00       0.00       0.46       2.35       0.00       2.35        0.05     8.35   0.561
  sub5                       4.19       0.00       0.00       0.29       2.59       0.00       2.59        0.03     7.60   0.617
  sub7                       4.19       0.00       0.00       0.38       2.56       0.00       2.56        0.01     2.74   0.611
  sub8                       4.19       0.00       0.00       0.38       2.55       0.00       2.55        0.02     4.79   0.609
  sub9                       4.19       0.00       0.00       0.38       2.55       0.00       2.55        0.01     3.55   0.608
  sub10                      4.19       0.00       0.00       0.34       2.56       0.00       2.56        0.03     7.61   0.612
  sub11                      4.19       0.00       0.00       0.34       2.58       0.00       2.58        0.03     9.04   0.616
  sub12                      4.19       0.00       0.00       0.54       2.46       0.00       2.46        0.02     7.83   0.586
  sub14                      4.19       0.00       0.00       0.38       2.54       0.00       2.54        0.02     6.92   0.608
  sub15                      4.19       0.00       0.00       1.26       1.95       0.00       1.95        0.03     9.37   0.467
  sub16                      4.19       0.00       0.00       1.38       1.89       0.00       1.89        0.02     6.84   0.451
  sub17                      4.19       0.00       0.00       1.34       1.91       0.00       1.91        0.02     5.50   0.457
  sub22                      4.19       0.00       0.00       1.80       1.60       0.00       1.60        0.10    31.00   0.382
  sub23                      4.19       0.00       0.00       1.55       1.77       0.00       1.77        0.08    26.47   0.422
  sub60                      4.19       0.00       0.00       0.50       1.53       0.00       1.53        0.46    38.61   0.365
  sub61                      4.19       0.00       0.00       0.71       1.69       0.00       1.69        0.52    49.57   0.403
  sub62                      4.19       0.00       0.00       0.34       1.79       0.00       1.79        0.55    50.32   0.428
  sub63                      4.19       0.00       0.00       1.21       1.52       0.00       1.52        0.46    46.71   0.363
  sub64                      4.19       0.00       0.00       0.63       1.46       0.00       1.46        0.44    36.61   0.348
  sub65                      4.19       0.00       0.00       0.54       1.47       0.00       1.47        0.45    37.08   0.351
  sub66                      4.19       0.00       0.00       1.21       1.28       0.00       1.28        0.39    33.80   0.307
  sub67                      4.19       0.00       0.00       0.34       2.02       0.00       2.02        0.62    66.03   0.483
  sub68                      4.19       0.00       0.00       0.59       1.81       0.00       1.81        0.56    55.14   0.432
  sub69                      4.19       0.00       0.00       0.63       2.01       0.00       2.01        0.47    56.20   0.479
  sub70                      4.19       2.05       0.00       2.12       2.30       0.00       2.30        0.53    40.91   0.370
  sub71                      4.19       0.00       0.00       0.34       1.69       0.00       1.69        0.40    34.83   0.405
  sub72                      4.19       0.00       0.00       0.29       1.12       0.00       1.12        0.23    15.77   0.268
  sub73                      4.19       2.24       0.00       2.19       2.24       0.00       2.24        0.53    34.82   0.348
  sub74                      4.19       0.00       0.00       3.14       0.61       0.00       0.61        0.24    31.66   0.146
  
  
  ******************
  Node Depth Summary
  ******************
  
  ---------------------------------------------------------------------------------
                                 Average  Maximum  Maximum  Time of Max    Reported
                                   Depth    Depth      HGL   Occurrence   Max Depth
  Node                 Type       Meters   Meters   Meters  days hr:min      Meters
  ---------------------------------------------------------------------------------
  WS02001211           JUNCTION     0.64     0.77     5.61     0  07:50        0.77
  WS02001212           JUNCTION     0.37     0.47     5.53     0  07:50        0.47
  WS02001213           JUNCTION     0.60     0.70     5.46     0  07:50        0.70
  WS02003069           JUNCTION     0.41     0.49     5.08     0  05:44        0.49
  WS02003072           JUNCTION     0.48     0.56     4.93     0  05:44        0.56
  WS02003073           JUNCTION     0.29     0.34     4.40     0  05:45        0.34
  WS02003060           JUNCTION     0.37     0.44     5.37     0  05:43        0.44
  WS02003066           JUNCTION     0.22     0.27     5.82     0  04:42        0.27
  WS02003059           JUNCTION     0.66     0.75     5.43     0  05:42        0.75
  WS02003067           JUNCTION     0.54     0.65     5.97     0  04:42        0.65
  WS02004401           JUNCTION     0.63     0.75     6.75     0  04:37        0.75
  WS02004402           JUNCTION     0.66     0.78     6.74     0  04:37        0.78
  WS02004403           JUNCTION     0.68     0.80     6.73     0  04:37        0.80
  WS02004404           JUNCTION     0.76     0.88     6.73     0  04:37        0.88
  WS02004406           JUNCTION     0.77     0.88     6.71     0  04:37        0.88
  WS02004409           JUNCTION     0.45     0.57     6.34     0  04:41        0.57
  WS02004410           JUNCTION     0.47     0.59     6.31     0  04:41        0.59
  WS02004411           JUNCTION     0.49     0.61     6.29     0  04:42        0.61
  WS02004412           JUNCTION     0.50     0.62     6.26     0  04:42        0.62
  WS02004413           JUNCTION     0.66     0.78     6.25     0  04:42        0.78
  WS02004405           JUNCTION     0.76     0.87     6.72     0  04:37        0.87
  WS02006109           JUNCTION     0.70     0.84     7.46     0  03:26        0.84
  WS02006110           JUNCTION     0.71     0.83     7.41     0  03:26        0.83
  WS02006111           JUNCTION     0.20     0.25     6.96     0  03:27        0.25
  WS02006112           JUNCTION     0.79     0.93     6.81     0  04:36        0.93
  WS02006113           JUNCTION     0.31     0.39     7.29     0  03:26        0.39
  WS02006115           JUNCTION     0.52     0.64     6.78     0  04:37        0.64
  WS02006116           JUNCTION     0.60     0.73     6.77     0  04:37        0.73
  WS02006230           JUNCTION     0.65     0.85     7.60     0  03:25        0.85
  WS02006231           JUNCTION     0.43     0.58     7.71     0  04:27        0.58
  WS02006232           JUNCTION     0.57     0.73     7.77     0  04:27        0.73
  WS02006234           JUNCTION     0.48     0.68     7.84     0  04:27        0.68
  WS02006235           JUNCTION     0.52     0.72     7.89     0  04:27        0.72
  WS02006238           JUNCTION     0.54     0.75     7.89     0  04:27        0.75
  WS02006240           JUNCTION     0.43     0.68     7.98     0  04:27        0.68
  WS02006242           JUNCTION     0.48     0.75     8.02     0  04:28        0.75
  WS02006243           JUNCTION     0.36     0.65     8.07     0  04:28        0.65
  WS02006245           JUNCTION     0.35     0.62     8.11     0  04:28        0.62
  WS02006247           JUNCTION     0.37     0.64     8.14     0  04:28        0.64
  WS02006248           JUNCTION     0.32     0.58     8.16     0  04:28        0.58
  WS02006249           JUNCTION     0.36     0.60     8.19     0  04:29        0.60
  WS02006239           JUNCTION     0.49     0.73     7.94     0  04:27        0.73
  WS02006251           JUNCTION     0.34     0.62     8.29     0  04:29        0.62
  WS02006252           JUNCTION     0.31     0.58     8.83     0  05:30        0.58
  WS02006253           JUNCTION     0.37     0.64     8.29     0  04:28        0.64
  WS02006256           JUNCTION     0.97     1.19     8.12     0  00:20        1.19
  WS02004138           JUNCTION     0.15     0.19     7.44     0  07:42        0.19
  WS02004407           JUNCTION     0.20     0.26     6.57     0  04:38        0.26
  WS02006228           JUNCTION     0.69     0.85     7.50     0  03:25        0.85
  WS02006229           JUNCTION     0.66     0.83     7.53     0  03:25        0.83
  WS02006280           JUNCTION     0.05     0.11     8.38     0  02:22        0.11
  WS02006284           JUNCTION     0.34     0.44     8.83     0  02:22        0.44
  WS02006287           JUNCTION     0.07     0.16     9.12     0  02:22        0.16
  WSF200               JUNCTION     0.20     0.26     5.50     0  03:35        0.26
  HS02004901           JUNCTION     0.10     0.19    10.01     0  02:20        0.19
  HS02004881           JUNCTION     0.00     0.02     9.05     0  02:21        0.02
  HS02004876           JUNCTION     0.03     0.09     9.12     0  02:21        0.09
  HS02004870           JUNCTION     0.01     0.03     9.32     0  02:21        0.03
  HS02004862           JUNCTION     0.01     0.03     9.42     0  02:23        0.03
  HS02004856           JUNCTION     0.07     0.09     9.52     0  02:22        0.09
  HS02004852           JUNCTION     0.00     0.02     9.53     0  02:23        0.02
  HS02004848           JUNCTION     0.00     0.02     9.62     0  02:20        0.02
  HS02004842           JUNCTION     0.33     0.35     9.62     0  02:19        0.35
  HS02004837           JUNCTION     0.02     0.04     9.62     0  02:20        0.04
  HS02004830           JUNCTION     0.03     0.05     9.52     0  02:20        0.05
  HS02004824           JUNCTION     0.02     0.03     9.43     0  02:23        0.03
  HS02004817           JUNCTION     0.41     0.49     9.34     0  02:22        0.49
  HS02004807           JUNCTION     0.10     0.16     9.33     0  02:22        0.16
  HS02004802           JUNCTION     0.14     0.20     9.33     0  02:22        0.20
  HS02004799           JUNCTION     0.09     0.20     9.41     0  02:21        0.20
  HS02004792           JUNCTION     0.02     0.07     9.59     0  02:20        0.07
  HS02004788           JUNCTION     0.01     0.05     9.95     0  02:21        0.05
  HS02004785           JUNCTION     0.03     0.10    10.00     0  02:21        0.10
  HS02004777           JUNCTION     0.12     0.21    10.01     0  02:21        0.21
  HS02004770           JUNCTION     0.09     0.18    10.01     0  02:21        0.18
  HS02004480           JUNCTION     0.05     0.15     9.39     0  02:21        0.15
  HS02004479           JUNCTION     0.09     0.19     9.39     0  02:21        0.19
  HS02004478           JUNCTION     0.04     0.09     9.32     0  02:22        0.09
  YS02001745           JUNCTION     0.06     0.09     7.60     0  03:01        0.09
  YS02001748           JUNCTION     0.08     0.14     7.21     0  04:12        0.13
  YS02001751           JUNCTION     0.21     0.36     7.24     0  04:12        0.35
  YS02001754           JUNCTION     0.46     0.66     7.27     0  04:11        0.66
  YS02001762           JUNCTION     0.65     0.82     7.22     0  04:13        0.82
  YS02001765           JUNCTION     0.61     0.78     7.23     0  04:14        0.78
  YS02001767           JUNCTION     0.57     0.73     7.22     0  04:13        0.73
  YS02001770           JUNCTION     0.56     0.71     7.21     0  04:13        0.71
  YS02001774           JUNCTION     0.63     0.79     7.21     0  04:13        0.79
  YS02001779           JUNCTION     0.39     0.53     7.21     0  04:13        0.52
  YS02001882           JUNCTION     0.22     0.33     7.04     0  02:54        0.33
  YS02001884           JUNCTION     0.32     0.43     7.04     0  02:55        0.43
  YS02001759           JUNCTION     0.69     0.85     7.22     0  04:11        0.85
  YS02001887           JUNCTION     0.39     0.51     7.04     0  02:55        0.51
  YS02001890           JUNCTION     0.43     0.54     7.04     0  02:54        0.54
  YS02001898           JUNCTION     0.20     0.29     7.03     0  02:56        0.29
  YS02001901           JUNCTION     0.31     0.42     7.03     0  02:56        0.42
  YS02001904           JUNCTION     0.29     0.40     7.03     0  02:55        0.40
  YS02001907           JUNCTION     0.62     0.74     7.03     0  02:56        0.74
  YS02001910           JUNCTION     0.41     0.52     7.03     0  02:56        0.52
  YS02001915           JUNCTION     0.21     0.31     7.03     0  02:57        0.31
  YS02001918           JUNCTION     0.06     0.07     7.14     0  03:04        0.07
  YS02001619           JUNCTION     0.17     0.28     7.21     0  04:13        0.28
  YS02001629           JUNCTION     0.51     0.66     7.21     0  04:14        0.66
  YS02001641           JUNCTION     0.62     0.78     7.21     0  04:12        0.78
  YS02001644           JUNCTION     0.62     0.78     7.21     0  04:12        0.78
  YS02001652           JUNCTION     0.47     0.63     7.23     0  04:14        0.63
  YS02001655           JUNCTION     0.24     0.36     7.21     0  04:13        0.36
  YS02001920           JUNCTION     0.15     0.17     7.17     0  03:03        0.17
  YS02001923           JUNCTION     0.05     0.06     7.32     0  03:02        0.06
  YS02001926           JUNCTION     0.11     0.13     7.58     0  03:02        0.13
  YS02001929           JUNCTION     0.05     0.06     7.76     0  03:01        0.06
  YS02001658           JUNCTION     0.06     0.10     7.24     0  02:47        0.10
  YS02001661           JUNCTION     0.12     0.16     7.57     0  02:47        0.16
  YS02001664           JUNCTION     0.05     0.08     8.01     0  02:46        0.08
  YS02001622           JUNCTION     0.19     0.30     7.21     0  04:13        0.30
  YS02001633           JUNCTION     0.60     0.76     7.21     0  04:13        0.76
  YS02001649           JUNCTION     0.66     0.82     7.21     0  04:11        0.82
  YS02001757           JUNCTION     0.78     0.97     7.23     0  04:13        0.97
  YS02001895           JUNCTION     0.19     0.29     7.04     0  02:55        0.29
  YS02001625           JUNCTION     0.47     0.60     7.21     0  04:12        0.60
  YS02163301           JUNCTION     0.54     0.69     7.21     0  04:12        0.69
  YS02163601           JUNCTION     0.66     0.82     7.21     0  04:13        0.81
  YS02164001           JUNCTION     0.60     0.75     7.21     0  04:13        0.75
  YS02001647           JUNCTION     0.46     0.61     7.22     0  04:12        0.60
  YSB1154              JUNCTION     0.23     0.33     9.39     0  02:21        0.33
  YSB6556              JUNCTION     0.12     0.22     9.39     0  02:21        0.22
  YSB1174              JUNCTION     0.18     0.28     9.39     0  02:21        0.28
  YSB1171              JUNCTION     0.38     0.49     9.39     0  02:21        0.49
  YS02006553           JUNCTION     0.63     0.74     7.03     0  02:56        0.74
  YS02006561           JUNCTION     0.11     0.16     6.82     0  02:57        0.16
  YS02006556           JUNCTION     0.60     0.71     7.03     0  02:57        0.71
  YS02006558           JUNCTION     0.64     0.76     7.03     0  02:57        0.76
  YS02001783           JUNCTION     0.18     0.28     6.42     0  02:57        0.28
  YS02001784           JUNCTION     0.21     0.31     6.38     0  02:56        0.31
  YS02001786           JUNCTION     0.18     0.27     6.30     0  02:57        0.27
  YS02001788           JUNCTION     0.13     0.19     6.17     0  02:57        0.19
  YS02001790           JUNCTION     0.16     0.24     5.88     0  02:58        0.24
  YS02001791           JUNCTION     0.10     0.16     5.63     0  02:58        0.16
  YS02001793           JUNCTION     0.07     0.10     4.94     0  02:58        0.10
  WS02004139           JUNCTION     0.58     0.72     5.63     0  07:50        0.72
  WSC                  OUTFALL      0.29     0.34     1.01     0  05:46        0.34
  3                    OUTFALL      0.05     0.19     6.19     0  00:20        0.19
  4                    OUTFALL      0.01     0.10     7.10     0  04:29        0.10
  5                    OUTFALL      0.00     0.00     5.00     0  00:00        0.00
  JK-storage           STORAGE      0.06     3.00     3.80     0  00:10        3.00
  CC-storage           STORAGE      0.04     0.17     7.17     0  04:08        0.17
  XR-storage           STORAGE      5.57     7.72     5.72     0  06:21        7.72
  
  
  *******************
  Node Inflow Summary
  *******************
  
  -------------------------------------------------------------------------------------------------
                                  Maximum  Maximum                  Lateral       Total        Flow
                                  Lateral    Total  Time of Max      Inflow      Inflow     Balance
                                   Inflow   Inflow   Occurrence      Volume      Volume       Error
  Node                 Type           LPS      LPS  days hr:min    10^6 ltr    10^6 ltr     Percent
  -------------------------------------------------------------------------------------------------
  WS02001211           JUNCTION      7.35   387.36     0  07:50       0.207        6.46       0.637
  WS02001212           JUNCTION      0.00   386.99     0  07:50           0        6.42       0.372
  WS02001213           JUNCTION      0.00   386.80     0  07:50           0         6.4       0.411
  WS02003069           JUNCTION      0.32   709.23     0  05:43     0.00902        12.7       0.251
  WS02003072           JUNCTION      0.00   709.07     0  05:44           0        12.7       0.307
  WS02003073           JUNCTION      1.82   710.95     0  05:45      0.0514        12.7       0.348
  WS02003060           JUNCTION     16.53   708.39     0  05:43       0.466        12.7       0.238
  WS02003066           JUNCTION      0.00   410.58     0  04:42           0        5.91       0.066
  WS02003059           JUNCTION      0.00   386.68     0  07:50           0        6.38       0.631
  WS02003067           JUNCTION      0.00   410.58     0  04:42           0        5.92       0.143
  WS02004401           JUNCTION      0.00   410.66     0  04:35           0        6.13       0.308
  WS02004402           JUNCTION      0.00   410.62     0  04:36           0        6.11       0.294
  WS02004403           JUNCTION      0.00   410.60     0  04:36           0        6.09       0.271
  WS02004404           JUNCTION      0.16   410.76     0  04:37     0.00457        6.08       0.209
  WS02004406           JUNCTION      0.00   410.79     0  04:37           0        6.05       0.511
  WS02004409           JUNCTION      0.00   410.78     0  04:38           0        6.01       0.227
  WS02004410           JUNCTION      0.00   410.69     0  04:39           0           6       0.262
  WS02004411           JUNCTION      0.00   410.63     0  04:40           0        5.98       0.274
  WS02004412           JUNCTION      0.00   410.60     0  04:41           0        5.97       0.303
  WS02004413           JUNCTION      0.00   410.59     0  04:41           0        5.95       0.458
  WS02004405           JUNCTION      0.04   410.79     0  04:37     0.00107        6.07       0.313
  WS02006109           JUNCTION      1.23   417.75     0  03:25      0.0347        6.22       0.256
  WS02006110           JUNCTION      0.00   417.72     0  03:25           0         6.2       0.287
  WS02006111           JUNCTION      0.00   426.97     0  03:26           0        6.17       0.051
  WS02006112           JUNCTION      5.50   419.62     0  03:27      0.0164        6.19       0.426
  WS02006113           JUNCTION      0.00   417.73     0  03:26           0        6.18       0.121
  WS02006115           JUNCTION      0.00   415.11     0  03:27           0        6.16       0.269
  WS02006116           JUNCTION      0.00   411.30     0  03:29           0        6.15       0.261
  WS02006230           JUNCTION     10.28   394.01     0  04:28        0.29        5.57       0.147
  WS02006231           JUNCTION      0.00   383.73     0  04:26           0        5.29       0.208
  WS02006232           JUNCTION      0.00   383.87     0  04:23           0        5.31       0.247
  WS02006234           JUNCTION      0.00   385.05     0  04:22           0        5.31       0.101
  WS02006235           JUNCTION      0.00   385.32     0  04:22           0        5.35       0.147
  WS02006238           JUNCTION      0.00   310.35     0  04:41           0        3.44       0.155
  WS02006240           JUNCTION      0.00   319.95     0  05:32           0        3.42       0.192
  WS02006242           JUNCTION      0.00   329.72     0  05:31           0        3.42       0.240
  WS02006243           JUNCTION      0.00   338.62     0  05:31           0         3.4      -0.440
  WS02006245           JUNCTION      0.00   344.44     0  05:31           0         3.4       0.198
  WS02006247           JUNCTION      0.00   349.49     0  05:31           0         3.4       0.093
  WS02006248           JUNCTION      0.00   353.68     0  05:30           0         3.4      -0.007
  WS02006249           JUNCTION      0.00   401.62     0  04:28           0        3.56       0.211
  WS02006239           JUNCTION      0.00   310.33     0  04:40           0        3.43       0.210
  WS02006251           JUNCTION      0.08   401.65     0  04:27     0.00217        3.61       0.108
  WS02006252           JUNCTION      0.00   400.00     0  04:20           0        3.47       0.006
  WS02006253           JUNCTION      0.86    27.20     0  05:52     0.00213       0.139       0.997
  WS02006256           JUNCTION      0.00   599.61     0  00:20           0        3.15       0.074
  WS02004138           JUNCTION      0.00   380.00     0  07:40           0         6.3       0.095
  WS02004407           JUNCTION      0.00   410.79     0  04:38           0        6.02       0.102
  WS02006228           JUNCTION      0.00   416.56     0  03:25           0        6.19       0.185
  WS02006229           JUNCTION      0.00   416.57     0  03:25           0         6.2       0.163
  WS02006280           JUNCTION      0.00   124.71     0  02:23           0       0.639       0.011
  WS02006284           JUNCTION      0.10   124.71     0  02:22      0.0027        0.64       0.177
  WS02006287           JUNCTION      0.00   124.63     0  02:22           0       0.638       0.109
  WSF200               JUNCTION      0.00   410.58     0  04:42           0        5.91       0.060
  HS02004901           JUNCTION      6.84     6.84     0  02:13      0.0198      0.0199       9.677
  HS02004881           JUNCTION      2.74    22.41     0  02:21     0.00861      0.0892       0.200
  HS02004876           JUNCTION      4.27    19.93     0  02:21      0.0164      0.0811       0.641
  HS02004870           JUNCTION      4.79    15.78     0  02:21      0.0163      0.0648       0.163
  HS02004862           JUNCTION      3.93    11.36     0  02:21      0.0218      0.0487       0.342
  HS02004856           JUNCTION      3.55     7.48     0  02:21      0.0122      0.0283       5.342
  HS02004852           JUNCTION      0.00     4.19     0  02:21           0      0.0161       0.295
  HS02004848           JUNCTION      7.55     7.55     0  02:23      0.0383      0.0383       0.109
  HS02004842           JUNCTION      0.00     4.48     0  00:03           0      0.0353      58.382
  HS02004837           JUNCTION     13.96    17.18     0  02:19       0.207        0.23       0.355
  HS02004830           JUNCTION      0.15    17.32     0  02:20     0.00423        0.22       0.563
  HS02004824           JUNCTION      8.40    25.62     0  02:23      0.0504       0.269       0.200
  HS02004817           JUNCTION      0.60    26.22     0  02:23      0.0169       0.285       6.196
  HS02004807           JUNCTION      9.04    34.38     0  02:22      0.0299       0.299       1.434
  HS02004802           JUNCTION      0.00    34.42     0  02:24           0       0.295       1.397
  HS02004799           JUNCTION      6.92    76.88     0  02:19      0.0242       0.312       0.725
  HS02004792           JUNCTION     31.28    70.22     0  02:19       0.109       0.288       0.144
  HS02004788           JUNCTION     11.04    40.96     0  02:21      0.0807        0.18       0.215
  HS02004785           JUNCTION      0.15    30.43     0  02:20     0.00423       0.102       0.471
  HS02004777           JUNCTION      0.03    30.88     0  02:18    0.000846       0.102       5.355
  HS02004770           JUNCTION     26.47    32.12     0  02:16      0.0843       0.102       3.116
  HS02004480           JUNCTION      0.00    90.48     0  02:20           0        0.36       0.190
  HS02004479           JUNCTION      0.00    13.94     0  02:23           0      0.0603       1.220
  HS02004478           JUNCTION      0.00   124.63     0  02:22           0       0.639       0.103
  YS02001745           JUNCTION     38.62    38.62     0  03:01       0.463       0.463       0.075
  YS02001748           JUNCTION      0.04    38.66     0  03:01     0.00127       0.464       0.027
  YS02001751           JUNCTION      0.01   107.60     0  04:17     0.00031        0.61       0.245
  YS02001754           JUNCTION      0.26   240.83     0  04:23     0.00733        1.07       1.017
  YS02001762           JUNCTION      0.00    61.98     0  03:23           0       0.603       2.299
  YS02001765           JUNCTION      0.00    87.74     0  04:20           0       0.592       2.478
  YS02001767           JUNCTION      0.54    71.02     0  04:14      0.0151       0.597       3.282
  YS02001770           JUNCTION     50.47    56.57     0  02:50       0.555       0.577       2.875
  YS02001774           JUNCTION      0.00    28.34     0  02:30           0      0.0923      18.739
  YS02001779           JUNCTION      0.01    13.08     0  04:07    0.000141      0.0551      10.175
  YS02001882           JUNCTION      0.00     2.38     0  02:12           0     0.00344      71.245
  YS02001884           JUNCTION      0.00     7.37     0  02:07           0       0.014      44.948
  YS02001759           JUNCTION     49.61   121.32     0  03:33       0.521         1.1       1.446
  YS02001887           JUNCTION     66.48    66.48     0  02:44       0.637       0.643       1.034
  YS02001890           JUNCTION      0.00    66.11     0  02:47           0       0.625       1.174
  YS02001898           JUNCTION      0.00    65.83     0  02:50           0       0.614       0.292
  YS02001901           JUNCTION      0.00    65.87     0  02:50           0       0.614       0.813
  YS02001904           JUNCTION      0.00    65.57     0  02:51           0       0.614       0.759
  YS02001907           JUNCTION      0.00   118.57     0  02:58           0        1.31       1.644
  YS02001910           JUNCTION      0.00    53.70     0  03:01           0       0.704       1.362
  YS02001915           JUNCTION     34.85    53.37     0  03:01         0.4       0.707       0.553
  YS02001918           JUNCTION      0.00    18.67     0  03:03           0       0.308       0.269
  YS02001619           JUNCTION     33.80    33.80     0  02:59       0.393       0.393       0.137
  YS02001629           JUNCTION      0.00    38.54     0  02:39           0       0.377       1.462
  YS02001641           JUNCTION      0.00    78.07     0  03:27           0       0.799       1.580
  YS02001644           JUNCTION     36.65   109.41     0  03:05       0.444        1.22       1.249
  YS02001652           JUNCTION      0.00    75.77     0  04:21           0       0.523       1.713
  YS02001655           JUNCTION      0.15    46.86     0  02:47     0.00434       0.471       0.679
  YS02001920           JUNCTION      2.87    18.68     0  03:02      0.0809        0.31       0.553
  YS02001923           JUNCTION      0.04    15.81     0  03:02     0.00106       0.229       0.097
  YS02001926           JUNCTION      0.05    15.81     0  03:01     0.00147       0.229       0.706
  YS02001929           JUNCTION     15.77    15.77     0  03:01       0.228       0.228       0.092
  YS02001658           JUNCTION      0.00    46.71     0  02:47           0       0.459       0.041
  YS02001661           JUNCTION      0.00    46.71     0  02:46           0       0.459       0.159
  YS02001664           JUNCTION     46.71    46.71     0  02:46        0.46        0.46       0.031
  YS02001622           JUNCTION      0.00    35.58     0  03:03           0       0.393       0.630
  YS02001633           JUNCTION     37.28    77.14     0  02:38       0.458       0.822       2.236
  YS02001649           JUNCTION      0.00   179.25     0  03:26           0        1.69       1.387
  YS02001757           JUNCTION      0.00   414.22     0  04:26           0        3.51       1.968
  YS02001895           JUNCTION      0.00    65.90     0  02:49           0       0.618       0.513
  YS02001625           JUNCTION      0.00    36.84     0  02:47           0        0.39       3.875
  YS02163301           JUNCTION      0.00    39.44     0  02:38           0       0.377       3.281
  YS02163601           JUNCTION      0.11    75.20     0  02:38      0.0031       0.804       2.430
  YS02164001           JUNCTION      0.00    75.89     0  03:27           0       0.794       1.470
  YS02001647           JUNCTION      0.00   111.21     0  03:06           0         1.2       1.010
  YSB1154              JUNCTION      7.60     7.60     0  02:17      0.0293      0.0307       4.937
  YSB6556              JUNCTION      0.00     7.51     0  02:20           0      0.0317       4.080
  YSB1174              JUNCTION      7.83     7.83     0  02:12      0.0214      0.0225       6.061
  YSB1171              JUNCTION      0.00    13.96     0  02:20           0      0.0597      11.825
  YS02006553           JUNCTION      0.00   118.63     0  03:02           0         1.3       1.071
  YS02006561           JUNCTION      0.00   174.02     0  02:57           0        1.83       0.029
  YS02006556           JUNCTION      0.00   118.80     0  03:02           0         1.3       0.767
  YS02006558           JUNCTION     56.02   174.04     0  02:56        0.58        1.86       0.231
  YS02001783           JUNCTION      0.00   174.02     0  02:57           0        1.83       0.066
  YS02001784           JUNCTION      1.06   175.08     0  02:57      0.0299        1.86       0.111
  YS02001786           JUNCTION      0.06   175.11     0  02:57     0.00159        1.86       0.109
  YS02001788           JUNCTION      0.07   175.18     0  02:57       0.002        1.86       0.060
  YS02001790           JUNCTION      0.15   175.33     0  02:57     0.00437        1.86       0.079
  YS02001791           JUNCTION      0.00   175.33     0  02:58           0        1.86       0.038
  YS02001793           JUNCTION      0.00   175.33     0  02:58           0        1.86       0.019
  WS02004139           JUNCTION      0.32   380.32     0  07:42     0.00905         6.3       0.701
  WSC                  OUTFALL       0.00   710.72     0  05:46           0        12.6       0.000
  3                    OUTFALL       0.00   445.04     0  00:20           0        1.21       0.000
  4                    OUTFALL       0.00    92.00     0  04:29           0       0.153       0.000
  5                    OUTFALL       0.00     0.00     0  00:00           0           0       0.000 ltr
  JK-storage           STORAGE       0.00   175.33     0  02:58           0        2.01     -36.251
  CC-storage           STORAGE       0.00   284.00     0  03:05           0        2.99     -14.056
  XR-storage           STORAGE     263.35   263.35     0  02:52        6.41        7.01      -0.001
  
  
  **********************
  Node Surcharge Summary
  **********************
  
  Surcharging occurs when water rises above the top of the highest conduit.
  ---------------------------------------------------------------------
                                               Max. Height   Min. Depth
                                   Hours       Above Crown    Below Rim
  Node                 Type      Surcharged         Meters       Meters
  ---------------------------------------------------------------------
  WS02006109           JUNCTION        0.56          0.020        1.800
  WS02006232           JUNCTION        0.73          0.035        1.445
  WS02006235           JUNCTION        0.35          0.011        1.279
  WS02006238           JUNCTION        0.50          0.031        1.399
  WS02006242           JUNCTION        0.36          0.025        0.795
  WS02006252           JUNCTION        1.07          0.185        0.915
  WS02006228           JUNCTION        0.53          0.020        2.180
  
  
  *********************
  Node Flooding Summary
  *********************
  
  Flooding refers to all water that overflows a node, whether it ponds or not.
  --------------------------------------------------------------------------
                                                             Total   Maximum
                                 Maximum   Time of Max       Flood    Ponded
                        Hours       Rate    Occurrence      Volume     Depth
  Node                 Flooded       LPS   days hr:min    10^6 ltr    Meters
  --------------------------------------------------------------------------
  XR-storage              0.25    129.60      0  06:21       0.091     0.000
  
  
  **********************
  Storage Volume Summary
  **********************
  
  --------------------------------------------------------------------------------------------------
                         Average     Avg  Evap Exfil       Maximum     Max    Time of Max    Maximum
                          Volume    Pcnt  Pcnt  Pcnt        Volume    Pcnt     Occurrence    Outflow
  Storage Unit           1000 m3    Full  Loss  Loss       1000 m3    Full    days hr:min        LPS
  --------------------------------------------------------------------------------------------------
  JK-storage               0.003       1     0     0         0.151      52       0  00:10     599.61
  CC-storage               0.102       1     0     0         0.465       3       0  04:08     400.00
  XR-storage               0.668      72     0     0         0.926     100       0  06:21     380.00
  
  
  ***********************
  Outfall Loading Summary
  ***********************
  
  -----------------------------------------------------------
                         Flow       Avg       Max       Total
                         Freq      Flow      Flow      Volume
  Outfall Node           Pcnt       LPS       LPS    10^6 ltr
  -----------------------------------------------------------
  WSC                  100.00    518.17    710.72      12.622
  3                     68.62     89.75    445.04       1.208
  4                     16.27     44.20     92.00       0.153
  5                      0.00      0.00      0.00       0.000
  -----------------------------------------------------------
  System                46.22    652.12    931.88      13.982
  
  
  ********************
  Link Flow Summary
  ********************
  
  -----------------------------------------------------------------------------
                                 Maximum  Time of Max   Maximum    Max/    Max/
                                  |Flow|   Occurrence   |Veloc|    Full    Full
  Link                 Type          LPS  days hr:min     m/sec    Flow   Depth
  -----------------------------------------------------------------------------
  WS02003066WSF200     CONDUIT    410.58     0  04:42      2.62    0.07    0.20
  WS02006287WS02006284 CONDUIT    124.62     0  02:22      1.36    0.06    0.17
  WS02006284WS02006280 CONDUIT    124.71     0  02:23      1.61    0.05    0.16
  WS02006280WS02006229 CONDUIT    124.72     0  02:23      2.57    0.03    0.11
  WS02006229WS02006228 CONDUIT    416.56     0  03:25      0.83    1.38    1.00
  WS02006256WS02006235 CONDUIT    158.11     0  00:13      2.30    1.67    1.00
  WS02006253WS02006251 CONDUIT     40.63     0  05:32      0.40    0.12    0.89
  WS02006252WS02006251 CONDUIT    400.10     0  04:20      3.18    1.47    1.00
  WS02006251WS02006249 CONDUIT    401.62     0  04:28      1.16    1.16    0.87
  WS02006249WS02006248 CONDUIT    353.68     0  05:30      1.17    1.94    0.82
  WS02006248WS02006247 CONDUIT    349.49     0  05:31      1.13    0.76    0.86
  WS02006247WS02006245 CONDUIT    344.44     0  05:31      1.10    2.73    0.89
  WS02006245WS02006243 CONDUIT    338.62     0  05:31      1.13    1.00    0.90
  WS02006243WS02006242 CONDUIT    329.72     0  05:31      1.00    0.70    0.96
  WS02006242WS02006240 CONDUIT    319.95     0  05:32      0.91    1.27    0.98
  WS02006240WS02006239 CONDUIT    310.33     0  04:40      0.91    0.98    0.98
  WS02006239WS02006238 CONDUIT    310.35     0  04:41      0.82    0.99    1.00
  WS02006238WS02006235 CONDUIT    310.36     0  04:41      0.91    0.69    1.00
  WS02006235WS02006234 CONDUIT    385.05     0  04:22      1.03    4.06    0.97
  WS02006234WS02006232 CONDUIT    383.87     0  04:23      1.02    0.78    0.99
  WS02006232WS02006231 CONDUIT    383.73     0  04:26      1.05    0.80    0.91
  WS02006231WS02006230 CONDUIT    383.73     0  04:28      1.35    5.82    0.75
  WS02006230WS02006229 CONDUIT    394.05     0  04:29      1.02    8.77    1.00
  WS02006228WS02006109 CONDUIT    416.52     0  03:25      0.83    1.82    1.00
  WS02006116WS02004401 CONDUIT    410.66     0  04:35      0.73    0.57    0.74
  WS02006115WS02006116 CONDUIT    411.30     0  03:29      0.79    0.53    0.66
  WS02006113WS02006111 CONDUIT    426.97     0  03:26      2.25    0.51    0.40
  WS02006112WS02006115 CONDUIT    415.11     0  03:27      0.65    0.25    0.78
  WS02006111WS02006112 CONDUIT    419.12     0  03:27      1.29    0.20    0.65
  WS02006110WS02006113 CONDUIT    417.73     0  03:26      1.04    0.38    0.75
  WS02006109WS02006110 CONDUIT    417.72     0  03:25      0.85    0.80    0.95
  WS02004411WS02004412 CONDUIT    410.60     0  04:41      0.81    0.58    0.61
  WS02004401WS02004402 CONDUIT    410.62     0  04:36      0.77    0.49    0.77
  WS02004413WS02003067 CONDUIT    410.58     0  04:42      0.96    0.18    0.53
  WS02004412WS02004413 CONDUIT    410.59     0  04:41      0.70    0.27    0.70
  WS02004410WS02004411 CONDUIT    410.63     0  04:40      0.84    0.56    0.60
  WS02004409WS02004410 CONDUIT    410.69     0  04:39      0.87    0.53    0.58
  WS02004407WS02004409 CONDUIT    410.78     0  04:38      1.35    0.15    0.42
  WS02004406WS02004407 CONDUIT    410.79     0  04:38      0.89    0.18    0.57
  WS02004405WS02004406 CONDUIT    410.79     0  04:37      0.62    0.81    0.88
  WS02004404WS02004405 CONDUIT    410.75     0  04:37      0.84    4.02    0.88
  WS02004403WS02004404 CONDUIT    410.59     0  04:37      0.74    0.30    0.84
  WS02004402WS02004403 CONDUIT    410.60     0  04:36      0.75    0.59    0.79
  WS02004139WS02001211 CONDUIT    380.01     0  07:50      0.81    0.48    0.58
  WS02004138WS02004139 CONDUIT    380.00     0  07:42      3.34    0.08    0.43
  WS02003067WS02003066 CONDUIT    410.58     0  04:42      1.04    0.13    0.38
  WS02001213WS02003059 CONDUIT    386.68     0  07:50      0.78    0.64    0.71
  WS02001212WS02001213 CONDUIT    386.80     0  07:50      1.24    0.60    0.42
  WS02001211WS02001212 CONDUIT    386.99     0  07:50      0.76    0.30    0.62
  WS02003072WS02003073 CONDUIT    709.13     0  05:45      1.56    1.53    0.42
  WS02003069WS02003072 CONDUIT    709.07     0  05:44      1.48    0.34    0.44
  WS02003060WS02003069 CONDUIT    708.91     0  05:43      1.74    0.28    0.39
  WS02003059WS02003060 CONDUIT    386.64     0  07:50      0.82    0.25    0.59
  HS02004901HS02004770 CONDUIT      6.02     0  02:18      0.03    0.02    0.26
  HS02004876HS02004881 CONDUIT     19.94     0  02:22      0.39    0.21    0.07
  HS02004870HS02004876 CONDUIT     15.76     0  02:21      0.27    0.01    0.08
  HS02004842HS02004848 CONDUIT      3.57     0  02:31      0.02    0.00    0.26
  HS02004837HS02004842 CONDUIT      4.48     0  00:03      0.42    0.00    0.28
  HS02004830HS02004837 CONDUIT     17.17     0  02:20      0.38    0.02    0.06
  HS02004824HS02004830 CONDUIT     17.32     0  02:21      0.43    0.02    0.06
  HS02004817HS02004824 CONDUIT     25.62     0  02:23      0.17    0.01    0.37
  HS02004770HS02004777 CONDUIT     30.85     0  02:18      0.16    0.06    0.28
  HS02004799HS02004480 CONDUIT     76.73     0  02:20      0.45    0.10    0.24
  HS02004792HS02004799 CONDUIT     70.18     0  02:20      0.52    0.04    0.19
  HS02004788HS02004792 CONDUIT     40.92     0  02:21      0.69    0.03    0.09
  HS02004785HS02004788 CONDUIT     30.31     0  02:21      0.40    0.23    0.11
  HS02004777HS02004785 CONDUIT     30.28     0  02:20      0.20    0.04    0.22
  HS02004480HS02004478 CONDUIT     90.46     0  02:21      0.77    0.38    0.17
  HS02004479HS02004480 CONDUIT     14.06     0  02:23      0.15    0.01    0.24
  HS02004862HS02004870 CONDUIT     11.32     0  02:23      0.37    0.01    0.04
  HS02004848HS02004852 CONDUIT      4.19     0  02:21      0.24    0.00    0.03
  HS02004856HS02004862 CONDUIT      7.45     0  02:22      0.27    0.01    0.04
  HS02004852HS02004856 CONDUIT      4.16     0  02:23      0.08    0.00    0.08
  HS02004802HS02004478 CONDUIT     34.58     0  02:25      0.23    0.03    0.21
  HS02004478WS02006287 CONDUIT    124.63     0  02:22      1.05    0.03    0.13
  HS02004817HS02004807 CONDUIT     26.43     0  02:26      0.08    0.02    0.47
  HS02004807HS02004802 CONDUIT     34.42     0  02:24      0.19    0.07    0.25
  YS02001759YS02001757 CONDUIT    110.79     0  02:59      0.15    0.08    0.91
  YS02001762YS02001759 CONDUIT     90.32     0  04:21      0.17    0.10    0.83
  YS02001765YS02001762 CONDUIT     61.98     0  03:23      0.22    0.06    0.80
  YS02001770YS02001767 CONDUIT     59.69     0  02:33      0.31    0.24    0.72
  YS02001774YS02001770 CONDUIT     28.34     0  02:30      0.12    0.02    0.74
  YS02001779YS02001774 CONDUIT     13.08     0  04:07      0.07    0.01    0.65
  YS02001649YS02001757 CONDUIT    168.72     0  03:26      0.23    0.10    0.89
  YS02001767YS02001765 CONDUIT     87.74     0  04:20      0.26    0.11    0.74
  YS02006561YS02001783 CONDUIT    174.02     0  02:57      1.53    0.09    0.28
  YS02001783YS02001784 CONDUIT    174.02     0  02:57      1.02    0.24    0.37
  YS02001784YS02001785 CONDUIT    175.06     0  02:57      1.06    0.41    0.36
  YS02001788YS02001790 CONDUIT    175.17     0  02:57      1.61    0.13    0.27
  YS02001790YS02001791 CONDUIT    175.33     0  02:58      1.84    0.19    0.25
  YS02001791YS02001793 CONDUIT    175.33     0  02:58      3.31    0.08    0.16
  YS02001910YS02001907 CONDUIT     53.75     0  03:01      0.49    0.03    0.62
  YS02001786YS02001788 CONDUIT    175.11     0  02:57      1.46    0.34    0.29
  YS02001915YS02001910 CONDUIT     53.70     0  03:01      0.44    0.03    0.41
  YS02001918YS02001915 CONDUIT     18.66     0  03:04      0.44    0.01    0.19
  YS02001923YS02001920 CONDUIT     15.81     0  03:02      0.32    0.01    0.11
  YS02001926YS02001923 CONDUIT     15.78     0  03:02      0.38    0.02    0.10
  YS02001929YS02001926 CONDUIT     15.76     0  03:01      0.40    0.01    0.10
  YS02001920YS02001918 CONDUIT     18.67     0  03:03      0.36    0.02    0.12
  YS02001629YS02163301 CONDUIT     39.44     0  02:38      0.09    0.05    0.67
  YS02001619YS02001622 CONDUIT     35.58     0  03:03      0.56    0.05    0.29
  YS02001622YS02001625 CONDUIT     36.84     0  02:47      0.18    0.02    0.45
  YS02001625YS02001629 CONDUIT     38.54     0  02:39      0.18    0.02    0.44
  YS02163301YS02001633 CONDUIT     42.07     0  02:38      0.09    0.04    0.72
  YS02163601YS02164001 CONDUIT     75.89     0  03:27      0.12    0.07    0.78
  YS02164001YS02001641 CONDUIT     78.07     0  03:27      0.12    0.11    0.76
  YS02001641YS02001644 CONDUIT     73.77     0  03:05      0.13    0.24    0.78
  YS02001647YS02001649 CONDUIT    116.81     0  03:23      0.20    0.06    0.71
  YS02006553YS02006556 CONDUIT    118.80     0  03:02      0.20    0.10    0.71
  YS02006556YS02006558 CONDUIT    118.91     0  03:02      0.19    0.09    0.74
  YSB6556YSB1171       CONDUIT      7.54     0  02:24      0.04    0.01    0.51
  YS02001907YS02006553 CONDUIT    118.63     0  03:02      0.16    0.14    0.81
  YS02006558YS02006561 CONDUIT    174.02     0  02:57      1.97    0.38    0.35
  YS02001633YS02163601 CONDUIT     75.09     0  02:38      0.13    0.08    0.77
  YS02001644YS02001647 CONDUIT    111.21     0  03:06      0.20    0.07    0.69
  YS02001745YS02001748 CONDUIT     38.61     0  03:01      1.20    0.01    0.09
  YS02001748YS02001751 CONDUIT     49.61     0  03:29      0.95    0.03    0.23
  YS02001751YS02001754 CONDUIT    118.30     0  04:17      0.88    0.06    0.45
  YS02001754YS02001757 CONDUIT    179.66     0  04:24      0.33    0.07    0.79
  YS02001882YS02001884 CONDUIT      2.38     0  02:12      0.06    0.00    0.35
  YS02001884YS02001887 CONDUIT      7.37     0  02:07      0.05    0.01    0.44
  YS02001890YS02001895 CONDUIT     65.90     0  02:49      0.22    0.03    0.41
  YS02001895YS02001898 CONDUIT     65.83     0  02:50      0.44    0.11    0.28
  YS02001898YS02001901 CONDUIT     65.87     0  02:50      0.26    0.04    0.36
  YS02001901YS02001904 CONDUIT     65.57     0  02:51      0.22    0.10    0.41
  YS02001904YS02001907 CONDUIT     65.69     0  02:53      0.14    0.02    0.57
  YS02001887YS02001890 CONDUIT     66.11     0  02:47      0.17    0.11    0.50
  YS02001652YS02001649 CONDUIT     70.86     0  04:20      0.29    0.04    0.72
  YS02001655YS02001652 CONDUIT     58.96     0  03:26      0.94    0.03    0.47
  YS02001658YS02001655 CONDUIT     46.71     0  02:47      1.09    0.02    0.22
  YS02001661YS02001658 CONDUIT     46.71     0  02:47      1.22    0.02    0.10
  YS02001664YS02001661 CONDUIT     46.71     0  02:46      0.83    0.01    0.12
  YSB1154YSB6556       CONDUIT      7.51     0  02:20      0.19    0.01    0.40
  YSB1174YSB1171       CONDUIT      7.18     0  02:14      0.04    0.01    0.52
  YSB1171HS02004479    CONDUIT     13.94     0  02:23      0.54    0.01    0.39
  HS02004881HS02006253 CONDUIT     22.40     0  02:21      1.34    0.00    0.22
  YS02001793JiankangQianchi CONDUIT    175.33     0  02:58     11.05    0.01    0.50
  YS02001757CaochengTiaoxuchi CONDUIT    284.00     0  03:05      0.74    0.12    0.57
  WSF200WS02003060     CONDUIT    410.57     0  04:42      1.73    0.09    0.29
  1                    CONDUIT    710.72     0  05:46      3.03    0.25    0.34
  2                    CONDUIT     92.00     0  04:29      4.74    0.22    0.32
  3                    CONDUIT    445.04     0  00:20      9.54    0.71    0.63
  4                    CONDUIT      0.00     0  00:00      0.00    0.00    0.00
  CC-Pump-1            PUMP       200.00     0  03:20              1.00
  CC-Pump-2            PUMP       200.00     0  04:20              1.00
  JK-Pump-1            PUMP       299.80     0  00:20              1.00
  JK-Pump-2            PUMP       299.80     0  00:20              1.00
  XR-Pump-1            PUMP        95.00     0  00:00              1.00
  XR-Pump-2            PUMP        95.00     0  00:20              1.00
  XR-Pump-3            PUMP        95.00     0  00:00              1.00
  XR-Pump-4            PUMP        95.00     0  00:00              1.00
  
  
  ***************************
  Flow Classification Summary
  ***************************
  
  -------------------------------------------------------------------------------------
                      Adjusted    ---------- Fraction of Time in Flow Class ---------- 
                       /Actual         Up    Down  Sub   Sup   Up    Down  Norm  Inlet 
  Conduit               Length    Dry  Dry   Dry   Crit  Crit  Crit  Crit  Ltd   Ctrl  
  -------------------------------------------------------------------------------------
  WS02003066WSF200        1.00   0.07  0.00  0.00  0.00  0.93  0.00  0.00  0.75  0.00
  WS02006287WS02006284    1.00   0.04  0.02  0.00  0.73  0.21  0.00  0.00  0.81  0.00
  WS02006284WS02006280    1.00   0.05  0.00  0.00  0.00  0.00  0.00  0.95  0.00  0.00
  WS02006280WS02006229    1.00   0.05  0.00  0.00  0.00  0.00  0.00  0.95  0.00  0.00
  WS02006229WS02006228    1.00   0.00  0.00  0.00  1.00  0.00  0.00  0.00  0.00  0.00
  WS02006256WS02006235    1.00   0.00  0.00  0.00  0.99  0.00  0.00  0.00  0.00  0.00
  WS02006253WS02006251    1.00   0.03  0.01  0.00  0.95  0.00  0.00  0.00  0.00  0.00
  WS02006252WS02006251    1.00   0.10  0.00  0.00  0.00  0.00  0.90  0.00  0.00  0.00
  WS02006251WS02006249    1.00   0.00  0.00  0.00  1.00  0.00  0.00  0.00  0.32  0.00
  WS02006249WS02006248    1.00   0.00  0.00  0.00  0.86  0.00  0.13  0.00  0.00  0.00
  WS02006248WS02006247    1.00   0.00  0.00  0.00  0.97  0.00  0.00  0.02  0.22  0.00
  WS02006247WS02006245    1.00   0.00  0.00  0.00  0.97  0.00  0.00  0.02  0.00  0.00
  WS02006245WS02006243    1.00   0.01  0.00  0.00  0.94  0.00  0.00  0.05  0.02  0.00
  WS02006243WS02006242    1.00   0.01  0.00  0.00  0.99  0.00  0.00  0.00  0.27  0.00
  WS02006242WS02006240    1.00   0.01  0.00  0.00  0.99  0.00  0.00  0.00  0.00  0.00
  WS02006240WS02006239    1.00   0.01  0.00  0.00  0.95  0.00  0.00  0.05  0.02  0.00
  WS02006239WS02006238    1.00   0.00  0.00  0.00  1.00  0.00  0.00  0.00  0.00  0.00
  WS02006238WS02006235    1.00   0.00  0.00  0.00  1.00  0.00  0.00  0.00  0.00  0.00
  WS02006235WS02006234    1.00   0.00  0.00  0.00  0.95  0.00  0.05  0.00  0.00  0.00
  WS02006234WS02006232    1.00   0.00  0.00  0.00  0.99  0.00  0.00  0.00  0.01  0.00
  WS02006232WS02006231    1.00   0.00  0.00  0.00  0.99  0.00  0.00  0.00  0.00  0.00
  WS02006231WS02006230    1.00   0.01  0.00  0.00  0.37  0.00  0.62  0.00  0.00  0.00
  WS02006230WS02006229    1.00   0.00  0.00  0.00  0.99  0.00  0.00  0.01  0.00  0.00
  WS02006228WS02006109    1.00   0.00  0.00  0.00  1.00  0.00  0.00  0.00  0.00  0.00
  WS02006116WS02004401    1.00   0.03  0.00  0.00  0.97  0.00  0.00  0.00  0.00  0.00
  WS02006115WS02006116    1.00   0.03  0.00  0.00  0.96  0.00  0.00  0.01  0.00  0.00
  WS02006113WS02006111    1.00   0.02  0.00  0.00  0.00  0.98  0.00  0.00  0.14  0.00
  WS02006112WS02006115    1.00   0.02  0.01  0.00  0.97  0.00  0.00  0.00  0.00  0.00
  WS02006111WS02006112    1.00   0.02  0.00  0.00  0.97  0.00  0.00  0.00  0.96  0.00
  WS02006110WS02006113    1.00   0.00  0.02  0.00  0.98  0.00  0.00  0.00  0.00  0.00
  WS02006109WS02006110    1.00   0.00  0.00  0.00  1.00  0.00  0.00  0.00  0.00  0.00
  WS02004411WS02004412    1.00   0.04  0.00  0.00  0.96  0.00  0.00  0.00  0.00  0.00
  WS02004401WS02004402    1.00   0.03  0.00  0.00  0.97  0.00  0.00  0.00  0.00  0.00
  WS02004413WS02003067    1.00   0.05  0.02  0.00  0.00  0.00  0.94  0.00  0.00  0.00
  WS02004412WS02004413    1.00   0.05  0.00  0.00  0.95  0.00  0.00  0.00  0.03  0.00
  WS02004410WS02004411    1.00   0.04  0.00  0.00  0.96  0.00  0.00  0.00  0.03  0.00
  WS02004409WS02004410    1.00   0.04  0.00  0.00  0.96  0.00  0.00  0.00  0.03  0.00
  WS02004407WS02004409    1.00   0.04  0.00  0.00  0.95  0.00  0.00  0.00  0.87  0.00
  WS02004406WS02004407    1.00   0.00  0.04  0.00  0.96  0.00  0.00  0.00  0.00  0.00
  WS02004405WS02004406    1.00   0.00  0.00  0.00  1.00  0.00  0.00  0.00  0.03  0.00
  WS02004404WS02004405    1.00   0.00  0.00  0.00  1.00  0.00  0.00  0.00  0.00  0.00
  WS02004403WS02004404    1.00   0.00  0.03  0.00  0.97  0.00  0.00  0.00  0.01  0.00
  WS02004402WS02004403    1.00   0.03  0.00  0.00  0.97  0.00  0.00  0.00  0.00  0.00
  WS02004139WS02001211    1.00   0.00  0.00  0.00  1.00  0.00  0.00  0.00  0.00  0.00
  WS02004138WS02004139    1.00   0.00  0.00  0.00  1.00  0.00  0.00  0.00  1.00  0.00
  WS02003067WS02003066    1.00   0.06  0.00  0.00  0.93  0.00  0.00  0.00  0.00  0.00
  WS02001213WS02003059    1.00   0.00  0.00  0.00  1.00  0.00  0.00  0.00  0.00  0.00
  WS02001212WS02001213    1.00   0.00  0.00  0.00  0.78  0.00  0.21  0.00  0.00  0.00
  WS02001211WS02001212    1.00   0.00  0.00  0.00  1.00  0.00  0.00  0.00  0.00  0.00
  WS02003072WS02003073    1.00   0.00  0.00  0.00  0.00  0.00  0.00  1.00  0.00  0.00
  WS02003069WS02003072    1.00   0.00  0.00  0.00  1.00  0.00  0.00  0.00  0.32  0.00
  WS02003060WS02003069    1.00   0.00  0.00  0.00  1.00  0.00  0.00  0.00  0.17  0.00
  WS02003059WS02003060    1.00   0.00  0.00  0.00  1.00  0.00  0.00  0.00  0.01  0.00
  HS02004901HS02004770    1.00   0.05  0.00  0.00  0.95  0.00  0.00  0.00  0.03  0.00
  HS02004876HS02004881    1.00   0.00  0.00  0.00  1.00  0.00  0.00  0.00  0.00  0.00
  HS02004870HS02004876    1.00   0.00  0.00  0.00  0.99  0.01  0.00  0.00  0.95  0.00
  HS02004842HS02004848    1.00   0.00  0.05  0.00  0.95  0.00  0.00  0.00  0.71  0.00
  HS02004837HS02004842    1.00   0.00  0.00  0.00  1.00  0.00  0.00  0.00  0.11  0.00
  HS02004830HS02004837    1.00   0.00  0.00  0.00  1.00  0.00  0.00  0.00  0.99  0.00
  HS02004824HS02004830    1.00   0.00  0.00  0.00  1.00  0.00  0.00  0.00  0.00  0.00
  HS02004817HS02004824    1.00   0.00  0.00  0.00  1.00  0.00  0.00  0.00  1.00  0.00
  HS02004770HS02004777    1.00   0.00  0.05  0.00  0.95  0.00  0.00  0.00  0.08  0.00
  HS02004799HS02004480    1.00   0.00  0.02  0.00  0.94  0.00  0.04  0.00  0.00  0.00
  HS02004792HS02004799    1.00   0.00  0.00  0.00  1.00  0.00  0.00  0.00  0.98  0.00
  HS02004788HS02004792    1.00   0.00  0.00  0.00  1.00  0.00  0.00  0.00  0.98  0.00
  HS02004785HS02004788    1.00   0.00  0.00  0.00  1.00  0.00  0.00  0.00  0.00  0.00
  HS02004777HS02004785    1.00   0.00  0.00  0.00  1.00  0.00  0.00  0.00  0.21  0.00
  HS02004480HS02004478    1.00   0.05  0.00  0.00  0.76  0.00  0.00  0.19  0.00  0.00
  HS02004479HS02004480    1.00   0.02  0.00  0.00  0.98  0.00  0.00  0.00  0.16  0.00
  HS02004862HS02004870    1.00   0.00  0.00  0.00  1.00  0.00  0.00  0.00  0.05  0.00
  HS02004848HS02004852    1.00   0.05  0.00  0.00  0.95  0.00  0.00  0.00  0.70  0.00
  HS02004856HS02004862    1.00   0.00  0.08  0.00  0.92  0.00  0.00  0.00  0.73  0.00
  HS02004852HS02004856    1.00   0.05  0.01  0.00  0.94  0.00  0.00  0.00  0.82  0.00
  HS02004802HS02004478    1.00   0.05  0.01  0.00  0.94  0.00  0.00  0.00  0.00  0.00
  HS02004478WS02006287    1.00   0.06  0.00  0.00  0.94  0.00  0.00  0.00  0.81  0.00
  HS02004817HS02004807    1.00   0.00  0.05  0.00  0.95  0.00  0.00  0.00  0.00  0.00
  HS02004807HS02004802    1.00   0.05  0.00  0.00  0.95  0.00  0.00  0.00  0.01  0.00
  YS02001759YS02001757    1.00   0.00  0.00  0.00  1.00  0.00  0.00  0.00  0.17  0.00
  YS02001762YS02001759    1.00   0.00  0.00  0.00  1.00  0.00  0.00  0.00  0.05  0.00
  YS02001765YS02001762    1.00   0.00  0.00  0.00  1.00  0.00  0.00  0.00  0.23  0.00
  YS02001770YS02001767    1.00   0.00  0.00  0.00  1.00  0.00  0.00  0.00  0.00  0.00
  YS02001774YS02001770    1.00   0.00  0.06  0.00  0.94  0.00  0.00  0.00  0.07  0.00
  YS02001779YS02001774    1.00   0.00  0.00  0.00  1.00  0.00  0.00  0.00  0.28  0.00
  YS02001649YS02001757    1.00   0.00  0.00  0.00  1.00  0.00  0.00  0.00  0.19  0.00
  YS02001767YS02001765    1.00   0.00  0.00  0.00  1.00  0.00  0.00  0.00  0.01  0.00
  YS02006561YS02001783    1.00   0.08  0.00  0.00  0.00  0.92  0.00  0.00  0.72  0.00
  YS02001783YS02001784    1.00   0.00  0.08  0.00  0.92  0.00  0.00  0.00  0.10  0.00
  YS02001784YS02001785    1.00   0.00  0.00  0.00  1.00  0.00  0.00  0.00  0.26  0.00
  YS02001788YS02001790    1.00   0.00  0.00  0.00  0.08  0.92  0.00  0.00  0.99  0.00
  YS02001790YS02001791    1.00   0.00  0.00  0.00  0.00  1.00  0.00  0.00  0.36  0.00
  YS02001791YS02001793    1.00   0.00  0.00  0.00  0.00  1.00  0.00  0.00  0.00  0.00
  YS02001910YS02001907    1.00   0.00  0.00  0.00  0.99  0.00  0.00  0.01  0.13  0.00
  YS02001786YS02001788    1.00   0.00  0.00  0.00  0.09  0.91  0.00  0.00  0.00  0.00
  YS02001915YS02001910    1.00   0.00  0.00  0.00  1.00  0.00  0.00  0.00  0.25  0.00
  YS02001918YS02001915    1.00   0.00  0.00  0.00  1.00  0.00  0.00  0.00  0.81  0.00
  YS02001923YS02001920    1.00   0.00  0.00  0.00  1.00  0.00  0.00  0.00  1.00  0.00
  YS02001926YS02001923    1.00   0.00  0.04  0.00  0.00  0.00  0.96  0.00  0.00  0.00
  YS02001929YS02001926    1.00   0.00  0.05  0.00  0.95  0.00  0.00  0.00  0.86  0.00
  YS02001920YS02001918    1.00   0.00  0.00  0.00  1.00  0.00  0.00  0.00  0.00  0.00
  YS02001629YS02163301    1.00   0.07  0.00  0.00  0.93  0.00  0.00  0.00  0.00  0.00
  YS02001619YS02001622    1.00   0.05  0.00  0.00  0.95  0.00  0.00  0.00  0.00  0.00
  YS02001622YS02001625    1.00   0.05  0.00  0.00  0.95  0.00  0.00  0.00  0.14  0.00
  YS02001625YS02001629    1.00   0.05  0.03  0.00  0.90  0.00  0.02  0.00  0.00  0.00
  YS02163301YS02001633    1.00   0.00  0.07  0.00  0.93  0.00  0.00  0.00  0.00  0.00
  YS02163601YS02164001    1.00   0.00  0.04  0.00  0.96  0.00  0.00  0.00  0.00  0.00
  YS02164001YS02001641    1.00   0.00  0.04  0.00  0.96  0.00  0.00  0.00  0.07  0.00
  YS02001641YS02001644    1.00   0.00  0.00  0.00  1.00  0.00  0.00  0.00  0.00  0.00
  YS02001647YS02001649    1.00   0.00  0.08  0.00  0.92  0.00  0.00  0.00  0.01  0.00
  YS02006553YS02006556    1.00   0.00  0.00  0.00  1.00  0.00  0.00  0.00  0.03  0.00
  YS02006556YS02006558    1.00   0.00  0.00  0.00  1.00  0.00  0.00  0.00  0.00  0.00
  YSB6556YSB1171          1.00   0.02  0.02  0.00  0.95  0.00  0.00  0.00  0.00  0.00
  YS02001907YS02006553    1.00   0.00  0.00  0.00  1.00  0.00  0.00  0.00  0.00  0.00
  YS02006558YS02006561    1.00   0.08  0.00  0.00  0.00  0.92  0.00  0.00  0.71  0.00
  YS02001633YS02163601    1.00   0.00  0.00  0.00  1.00  0.00  0.00  0.00  0.20  0.00
  YS02001644YS02001647    1.00   0.00  0.08  0.00  0.92  0.00  0.00  0.00  0.00  0.00
  YS02001745YS02001748    1.00   0.00  0.00  0.00  0.00  0.00  0.00  1.00  0.00  0.00
  YS02001748YS02001751    1.00   0.00  0.00  0.00  0.97  0.03  0.00  0.00  0.71  0.00
  YS02001751YS02001754    1.00   0.00  0.00  0.00  0.92  0.00  0.00  0.08  0.02  0.00
  YS02001754YS02001757    1.00   0.00  0.00  0.00  1.00  0.00  0.00  0.00  0.27  0.00
  YS02001882YS02001884    1.00   0.06  0.00  0.00  0.93  0.00  0.00  0.00  0.00  0.00
  YS02001884YS02001887    1.00   0.03  0.01  0.00  0.96  0.00  0.00  0.00  0.00  0.00
  YS02001890YS02001895    1.00   0.00  0.07  0.00  0.93  0.00  0.00  0.00  0.00  0.00
  YS02001895YS02001898    1.00   0.07  0.00  0.00  0.92  0.00  0.01  0.00  0.00  0.00
  YS02001898YS02001901    1.00   0.07  0.01  0.00  0.93  0.00  0.00  0.00  0.02  0.00
  YS02001901YS02001904    1.00   0.07  0.00  0.00  0.93  0.00  0.00  0.00  0.00  0.00
  YS02001904YS02001907    1.00   0.00  0.07  0.00  0.93  0.00  0.00  0.00  0.00  0.00
  YS02001887YS02001890    1.00   0.00  0.00  0.00  0.99  0.00  0.01  0.00  0.00  0.00
  YS02001652YS02001649    1.00   0.00  0.00  0.00  1.00  0.00  0.00  0.00  0.27  0.00
  YS02001655YS02001652    1.00   0.00  0.00  0.00  0.92  0.00  0.00  0.08  0.03  0.00
  YS02001658YS02001655    1.00   0.00  0.06  0.00  0.91  0.03  0.00  0.00  0.79  0.00
  YS02001661YS02001658    1.00   0.06  0.00  0.00  0.00  0.94  0.00  0.00  0.72  0.00
  YS02001664YS02001661    1.00   0.05  0.00  0.00  0.95  0.00  0.00  0.00  0.86  0.00
  YSB1154YSB6556          1.00   0.05  0.00  0.00  0.95  0.00  0.00  0.00  0.02  0.00
  YSB1174YSB1171          1.00   0.03  0.01  0.00  0.96  0.00  0.00  0.00  0.00  0.00
  YSB1171HS02004479       1.00   0.02  0.00  0.00  0.97  0.00  0.00  0.01  0.13  0.00
  HS02004881HS02006253    1.00   0.03  0.00  0.00  0.66  0.02  0.00  0.30  0.47  0.00
  YS02001793JiankangQianchi    1.00   0.00  0.00  0.00  0.03  0.97  0.00  0.00  0.09  0.00
  YS02001757CaochengTiaoxuchi    1.00   0.00  0.10  0.00  0.90  0.00  0.00  0.00  0.00  0.00
  WSF200WS02003060        1.00   0.00  0.07  0.00  0.69  0.24  0.00  0.00  0.36  0.00
  1                       1.00   0.00  0.00  0.00  0.00  1.00  0.00  0.00  0.35  0.00
  2                       1.00   0.83  0.00  0.00  0.00  0.16  0.00  0.00  0.03  0.00
  3                       1.00   0.31  0.00  0.00  0.00  0.69  0.00  0.00  0.10  0.00
  4                       1.00   1.00  0.00  0.00  0.00  0.00  0.00  0.00  0.00  0.00
  
  
  *************************
  Conduit Surcharge Summary
  *************************
  
  ----------------------------------------------------------------------------
                                                           Hours        Hours 
                         --------- Hours Full --------   Above Full   Capacity
  Conduit                Both Ends  Upstream  Dnstream   Normal Flow   Limited
  ----------------------------------------------------------------------------
  WS02006229WS02006228        0.53      0.78      0.53      2.46         0.53
  WS02006256WS02006235        5.52      5.52      7.65      2.82         0.01
  WS02006252WS02006251        0.59      0.59      1.07      0.92         0.01
  WS02006251WS02006249        0.01      0.01      0.01      0.57         0.01
  WS02006249WS02006248        0.01      0.01      0.01      2.45         0.01
  WS02006247WS02006245        0.01      0.01      0.01      3.88         0.01
  WS02006245WS02006243        0.01      0.01      0.01      0.01         0.01
  WS02006243WS02006242        0.01      0.01      0.36      0.01         0.01
  WS02006242WS02006240        0.01      0.01      0.57      1.03         0.01
  WS02006239WS02006238        0.44      0.44      0.50      0.01         0.01
  WS02006238WS02006235        0.39      0.39      0.70      0.01         0.01
  WS02006235WS02006234        0.01      0.01      0.35      5.51         0.01
  WS02006234WS02006232        0.01      0.01      0.73      0.01         0.01
  WS02006232WS02006231        0.01      0.01      0.73      0.01         0.01
  WS02006231WS02006230        0.01      0.01      0.01      5.53         0.01
  WS02006230WS02006229        1.55      2.24      1.55      5.65         1.55
  WS02006228WS02006109        0.56      1.23      0.56      4.56         0.56
  WS02006111WS02006112        0.01      0.01      2.91      0.01         0.01
  WS02006110WS02006113        0.01      0.01      1.04      0.01         0.01
  WS02006109WS02006110        0.01      0.01      1.23      0.01         0.01
  WS02004404WS02004405        0.01      0.01      0.01      5.48         0.01
  WS02003072WS02003073        0.01      0.01      0.01      4.56         0.01
  YS02001793JiankangQianchi        0.01      0.01      0.29      0.01         0.01
  
  
  ***************
  Pumping Summary
  ***************
  
  ---------------------------------------------------------------------------------------------------------
                                                  Min       Avg       Max     Total     Power    % Time Off
                        Percent   Number of      Flow      Flow      Flow    Volume     Usage    Pump Curve
  Pump                 Utilized   Start-Ups       LPS       LPS       LPS  10^6 ltr     Kw-hr    Low   High
  ---------------------------------------------------------------------------------------------------------
  CC-Pump-1               57.88           6      0.00    114.43    200.00     1.766      7.71    0.0  100.0
  CC-Pump-2               59.57           7      0.00    103.16    200.00     1.709      7.44    0.0  100.0
  JK-Pump-1               85.11           4      0.00     84.44    299.80     1.489     28.75    0.0    0.0
  JK-Pump-2               91.48           4      0.00     86.49    299.80     1.660     32.03    0.0    0.0
  XR-Pump-1               76.61           5      0.00     72.24     95.00     1.539     18.19    0.0    0.0
  XR-Pump-2               85.09           9      0.00     65.34     95.00     1.567     17.71    0.0    0.0
  XR-Pump-3               82.97           7      0.00     69.46     95.00     1.653     19.32    0.0    0.0
  XR-Pump-4               82.96           9      0.00     66.72     95.00     1.539     17.31    0.0    0.0
  

  Analysis begun on:  Tue Dec 21 14:59:20 2021
  Analysis ended on:  Tue Dec 21 14:59:23 2021
  Total elapsed time: 00:00:03