
  EPA STORM WATER MANAGEMENT MODEL - VERSION 5.1 (Build 5.3.0.dev0)
  --------------------------------------------------------------

  WARNING 04: minimum elevation drop used for Conduit WS02004404WS02004405
  WARNING 03: negative offset ignored for Link YS02001904YS02001907
  
  *********************************************************
  NOTE: The summary statistics displayed in this report are
  based on results found at every computational time step,  
  not just on results from each reporting time step.
  *********************************************************
  
  ****************
  Analysis Options
  ****************
  Flow Units ............... LPS
  Process Models:
    Rainfall/Runoff ........ YES
    RDII ................... NO
    Snowmelt ............... NO
    Groundwater ............ NO
    Flow Routing ........... YES
    Ponding Allowed ........ NO
    Water Quality .......... NO
  Infiltration Method ...... HORTON
  Flow Routing Method ...... DYNWAVE
  Surcharge Method ......... EXTRAN
  Starting Date ............ 08/28/2015 08:00:00
  Ending Date .............. 08/28/2015 15:50:00
  Antecedent Dry Days ...... 8.0
  Report Time Step ......... 00:01:00
  Wet Time Step ............ 00:01:00
  Dry Time Step ............ 00:01:00
  Routing Time Step ........ 5.00 sec
  Variable Time Step ....... YES
  Maximum Trials ........... 8
  Number of Threads ........ 4
  Head Tolerance ........... 0.001500 m
  
  
  **************************        Volume         Depth
  Runoff Quantity Continuity     hectare-m            mm
  **************************     ---------       -------
  Total Precipitation ......         2.663         5.830
  Evaporation Loss .........         0.000         0.000
  Infiltration Loss ........         0.668         1.463
  Surface Runoff ...........         1.113         2.436
  Final Storage ............         0.882         1.932
  Continuity Error (%) .....        -0.018
  
  
  **************************        Volume        Volume
  Flow Routing Continuity        hectare-m      10^6 ltr
  **************************     ---------     ---------
  Dry Weather Inflow .......         0.616         6.165
  Wet Weather Inflow .......         1.112        11.120
  Groundwater Inflow .......         0.000         0.000
  RDII Inflow ..............         0.000         0.000
  External Inflow ..........         0.102         1.024
  External Outflow .........         1.763        17.631
  Flooding Loss ............         0.006         0.064
  Evaporation Loss .........         0.000         0.000
  Exfiltration Loss ........         0.000         0.000
  Initial Stored Volume ....         0.076         0.761
  Final Stored Volume ......         0.244         2.439
  Continuity Error (%) .....        -5.583
  
  
  *************************
  Highest Continuity Errors
  *************************
  Node JK-storage (-29.41%)
  Node HS02004842 (28.71%)
  Node YS02001884 (23.16%)
  Node YSB1171 (7.07%)
  Node HS02004901 (5.60%)
  
  
  ***************************
  Time-Step Critical Elements
  ***************************
  Link WS02006252WS02006251 (53.58%)
  Link 3 (32.19%)
  Link WS02006238WS02006235 (7.84%)
  Link WS02006280WS02006229 (1.82%)
  
  
  ********************************
  Highest Flow Instability Indexes
  ********************************
  Link WS02006113WS02006111 (38)
  Link WS02006111WS02006112 (22)
  Link YS02006558YS02006561 (12)
  Link WS02006110WS02006113 (3)
  Link YS02001765YS02001762 (3)
  
  
  *************************
  Routing Time Step Summary
  *************************
  Minimum Time Step           :     0.02 sec
  Average Time Step           :     0.87 sec
  Maximum Time Step           :     5.00 sec
  Percent in Steady State     :    -0.00
  Average Iterations per Step :     2.24
  Percent Not Converging      :     2.90
  
  
  ***************************
  Subcatchment Runoff Summary
  ***************************
  
  ------------------------------------------------------------------------------------------------------------------------------
                            Total      Total      Total      Total     Imperv       Perv      Total       Total     Peak  Runoff
                           Precip      Runon       Evap      Infil     Runoff     Runoff     Runoff      Runoff   Runoff   Coeff
  Subcatchment                 mm         mm         mm         mm         mm         mm         mm    10^6 ltr      LPS
  ------------------------------------------------------------------------------------------------------------------------------
  sub0                       5.83       0.00       0.00       0.41       4.16       0.00       4.16        0.00     1.37   0.713
  sub1                       5.83       0.00       0.00       0.64       3.93       0.00       3.93        0.03     7.19   0.675
  sub2                       5.83       0.00       0.00       2.16       2.77       0.00       2.77        0.03     6.37   0.475
  sub3                       5.83       0.00       0.00       2.16       2.73       0.00       2.73        0.06    13.12   0.469
  sub4                       5.83       0.00       0.00       0.64       3.80       0.00       3.80        0.08    14.74   0.651
  sub5                       5.83       0.00       0.00       0.41       4.11       0.00       4.11        0.05    12.79   0.705
  sub7                       5.83       0.00       0.00       0.52       4.05       0.00       4.05        0.01     4.51   0.695
  sub8                       5.83       0.00       0.00       0.52       4.04       0.00       4.04        0.03     7.96   0.693
  sub9                       5.83       0.00       0.00       0.52       4.04       0.00       4.04        0.02     5.90   0.693
  sub10                      5.83       0.00       0.00       0.47       4.07       0.00       4.07        0.04    12.76   0.699
  sub11                      5.83       0.00       0.00       0.47       4.09       0.00       4.09        0.05    14.97   0.701
  sub12                      5.83       0.00       0.00       0.76       3.88       0.00       3.88        0.03    12.68   0.666
  sub14                      5.83       0.00       0.00       0.52       4.04       0.00       4.04        0.04    11.53   0.693
  sub15                      5.83       0.00       0.00       1.75       3.10       0.00       3.10        0.05    15.64   0.532
  sub16                      5.83       0.00       0.00       1.92       2.99       0.00       2.99        0.03    11.14   0.512
  sub17                      5.83       0.00       0.00       1.87       3.03       0.00       3.03        0.03     9.00   0.520
  sub22                      5.83       0.00       0.00       2.51       2.53       0.00       2.53        0.16    51.19   0.435
  sub23                      5.83       0.00       0.00       2.16       2.80       0.00       2.80        0.13    43.62   0.481
  sub60                      5.83       0.00       0.00       0.70       2.71       0.00       2.71        0.82    76.21   0.465
  sub61                      5.83       0.00       0.00       0.99       2.90       0.00       2.90        0.90    95.28   0.498
  sub62                      5.83       0.00       0.00       0.47       3.11       0.00       3.11        0.96    97.52   0.534
  sub63                      5.83       0.00       0.00       1.69       2.59       0.00       2.59        0.78    88.77   0.444
  sub64                      5.83       0.00       0.00       0.87       2.59       0.00       2.59        0.79    72.36   0.444
  sub65                      5.83       0.00       0.00       0.76       2.62       0.00       2.62        0.81    73.39   0.450
  sub66                      5.83       0.00       0.00       1.69       2.26       0.00       2.26        0.69    66.37   0.388
  sub67                      5.83       0.00       0.00       0.47       3.43       0.00       3.43        1.06   124.64   0.588
  sub68                      5.83       0.00       0.00       0.82       3.09       0.00       3.09        0.95   105.22   0.530
  sub69                      5.83       0.00       0.00       0.87       3.34       0.00       3.34        0.78   104.02   0.573
  sub70                      5.83       3.41       0.00       3.14       4.09       0.00       4.09        0.94    84.08   0.442
  sub71                      5.83       0.00       0.00       0.47       2.97       0.00       2.97        0.70    68.20   0.510
  sub72                      5.83       0.00       0.00       0.41       2.09       0.00       2.09        0.43    31.96   0.358
  sub73                      5.83       3.98       0.00       3.33       4.15       0.00       4.15        0.97    72.10   0.423
  sub74                      5.83       0.00       0.00       4.37       1.01       0.00       1.01        0.40    57.95   0.173
  
  
  ******************
  Node Depth Summary
  ******************
  
  ---------------------------------------------------------------------------------
                                 Average  Maximum  Maximum  Time of Max    Reported
                                   Depth    Depth      HGL   Occurrence   Max Depth
  Node                 Type       Meters   Meters   Meters  days hr:min      Meters
  ---------------------------------------------------------------------------------
  WS02001211           JUNCTION     0.66     0.77     5.61     0  06:51        0.77
  WS02001212           JUNCTION     0.39     0.48     5.54     0  06:51        0.48
  WS02001213           JUNCTION     0.62     0.73     5.49     0  02:51        0.73
  WS02003069           JUNCTION     0.44     0.56     5.14     0  02:53        0.56
  WS02003072           JUNCTION     0.51     0.62     4.99     0  02:53        0.62
  WS02003073           JUNCTION     0.30     0.38     4.44     0  02:54        0.38
  WS02003060           JUNCTION     0.39     0.49     5.42     0  02:52        0.49
  WS02003066           JUNCTION     0.24     0.29     5.85     0  02:42        0.29
  WS02003059           JUNCTION     0.68     0.78     5.47     0  02:52        0.78
  WS02003067           JUNCTION     0.58     0.69     6.01     0  02:41        0.69
  WS02004401           JUNCTION     0.68     0.84     6.84     0  02:34        0.84
  WS02004402           JUNCTION     0.71     0.86     6.82     0  02:34        0.86
  WS02004403           JUNCTION     0.73     0.88     6.81     0  02:34        0.88
  WS02004404           JUNCTION     0.81     0.95     6.80     0  02:35        0.95
  WS02004406           JUNCTION     0.81     0.95     6.78     0  02:35        0.95
  WS02004409           JUNCTION     0.50     0.66     6.43     0  02:40        0.66
  WS02004410           JUNCTION     0.52     0.67     6.39     0  02:41        0.67
  WS02004411           JUNCTION     0.53     0.68     6.36     0  02:41        0.68
  WS02004412           JUNCTION     0.55     0.69     6.33     0  02:41        0.69
  WS02004413           JUNCTION     0.71     0.85     6.32     0  02:41        0.85
  WS02004405           JUNCTION     0.80     0.95     6.80     0  02:35        0.95
  WS02006109           JUNCTION     0.76     0.96     7.58     0  02:29        0.96
  WS02006110           JUNCTION     0.76     0.92     7.50     0  02:29        0.91
  WS02006111           JUNCTION     0.22     0.28     6.99     0  02:30        0.28
  WS02006112           JUNCTION     0.85     1.03     6.91     0  02:34        1.03
  WS02006113           JUNCTION     0.35     0.45     7.34     0  02:29        0.45
  WS02006115           JUNCTION     0.57     0.74     6.88     0  02:35        0.74
  WS02006116           JUNCTION     0.66     0.82     6.86     0  02:35        0.82
  WS02006230           JUNCTION     0.75     1.00     7.75     0  02:29        1.00
  WS02006231           JUNCTION     0.50     0.67     7.80     0  02:29        0.67
  WS02006232           JUNCTION     0.64     0.80     7.84     0  02:41        0.80
  WS02006234           JUNCTION     0.57     0.74     7.90     0  02:41        0.74
  WS02006235           JUNCTION     0.60     0.78     7.94     0  02:41        0.78
  WS02006238           JUNCTION     0.63     0.81     7.95     0  02:41        0.81
  WS02006240           JUNCTION     0.53     0.73     8.03     0  02:41        0.73
  WS02006242           JUNCTION     0.59     0.80     8.07     0  02:41        0.80
  WS02006243           JUNCTION     0.48     0.69     8.11     0  02:41        0.69
  WS02006245           JUNCTION     0.46     0.66     8.15     0  02:41        0.66
  WS02006247           JUNCTION     0.47     0.67     8.17     0  02:41        0.67
  WS02006248           JUNCTION     0.42     0.60     8.19     0  02:40        0.60
  WS02006249           JUNCTION     0.45     0.62     8.21     0  02:40        0.62
  WS02006239           JUNCTION     0.59     0.78     7.99     0  02:41        0.78
  WS02006251           JUNCTION     0.44     0.64     8.31     0  02:40        0.64
  WS02006252           JUNCTION     0.40     0.59     8.83     0  04:21        0.58
  WS02006253           JUNCTION     0.47     0.67     8.32     0  02:40        0.67
  WS02006256           JUNCTION     1.03     1.21     8.14     0  02:50        1.21
  WS02004138           JUNCTION     0.15     0.20     7.45     0  00:00        0.19
  WS02004407           JUNCTION     0.23     0.29     6.60     0  02:35        0.29
  WS02006228           JUNCTION     0.77     1.00     7.65     0  02:29        1.00
  WS02006229           JUNCTION     0.74     0.99     7.69     0  02:29        0.99
  WS02006280           JUNCTION     0.06     0.14     8.41     0  02:19        0.14
  WS02006284           JUNCTION     0.35     0.48     8.88     0  02:19        0.48
  WS02006287           JUNCTION     0.08     0.21     9.16     0  02:19        0.21
  WSF200               JUNCTION     0.22     0.30     5.54     0  02:49        0.30
  HS02004901           JUNCTION     0.11     0.23    10.05     0  02:16        0.23
  HS02004881           JUNCTION     0.01     0.02     9.05     0  02:18        0.02
  HS02004876           JUNCTION     0.04     0.10     9.13     0  02:17        0.10
  HS02004870           JUNCTION     0.01     0.04     9.33     0  02:19        0.04
  HS02004862           JUNCTION     0.01     0.05     9.43     0  02:20        0.05
  HS02004856           JUNCTION     0.07     0.10     9.53     0  02:19        0.10
  HS02004852           JUNCTION     0.01     0.03     9.54     0  02:20        0.03
  HS02004848           JUNCTION     0.01     0.03     9.63     0  02:19        0.03
  HS02004842           JUNCTION     0.33     0.36     9.63     0  02:18        0.36
  HS02004837           JUNCTION     0.03     0.05     9.63     0  02:18        0.05
  HS02004830           JUNCTION     0.04     0.06     9.53     0  02:19        0.06
  HS02004824           JUNCTION     0.02     0.04     9.44     0  02:22        0.04
  HS02004817           JUNCTION     0.42     0.52     9.37     0  02:19        0.52
  HS02004807           JUNCTION     0.11     0.20     9.37     0  02:19        0.20
  HS02004802           JUNCTION     0.15     0.23     9.36     0  02:19        0.23
  HS02004799           JUNCTION     0.10     0.25     9.46     0  02:17        0.25
  HS02004792           JUNCTION     0.02     0.10     9.62     0  02:16        0.10
  HS02004788           JUNCTION     0.02     0.07     9.97     0  02:17        0.07
  HS02004785           JUNCTION     0.04     0.13    10.03     0  02:17        0.13
  HS02004777           JUNCTION     0.13     0.25    10.05     0  02:16        0.25
  HS02004770           JUNCTION     0.10     0.22    10.05     0  02:16        0.22
  HS02004480           JUNCTION     0.07     0.20     9.44     0  02:17        0.20
  HS02004479           JUNCTION     0.10     0.23     9.44     0  02:17        0.23
  HS02004478           JUNCTION     0.05     0.12     9.35     0  02:18        0.12
  YS02001745           JUNCTION     0.08     0.12     7.63     0  03:01        0.12
  YS02001748           JUNCTION     0.25     0.41     7.49     0  04:13        0.41
  YS02001751           JUNCTION     0.43     0.61     7.49     0  04:14        0.60
  YS02001754           JUNCTION     0.68     0.88     7.49     0  04:13        0.88
  YS02001762           JUNCTION     0.87     1.19     7.59     0  04:18        1.13
  YS02001765           JUNCTION     0.82     1.14     7.59     0  04:18        1.08
  YS02001767           JUNCTION     0.79     1.26     7.75     0  04:17        1.17
  YS02001770           JUNCTION     0.78     0.98     7.47     0  03:03        0.98
  YS02001774           JUNCTION     0.85     1.06     7.48     0  04:21        1.05
  YS02001779           JUNCTION     0.60     0.82     7.51     0  04:16        0.81
  YS02001882           JUNCTION     0.28     0.45     7.17     0  02:55        0.45
  YS02001884           JUNCTION     0.38     0.55     7.17     0  02:55        0.55
  YS02001759           JUNCTION     0.90     1.22     7.58     0  04:18        1.16
  YS02001887           JUNCTION     0.46     0.63     7.17     0  02:55        0.63
  YS02001890           JUNCTION     0.49     0.66     7.17     0  02:57        0.66
  YS02001898           JUNCTION     0.26     0.42     7.15     0  02:56        0.42
  YS02001901           JUNCTION     0.37     0.54     7.15     0  02:56        0.54
  YS02001904           JUNCTION     0.35     0.52     7.15     0  02:56        0.52
  YS02001907           JUNCTION     0.68     0.86     7.15     0  02:55        0.86
  YS02001910           JUNCTION     0.47     0.64     7.15     0  02:56        0.64
  YS02001915           JUNCTION     0.27     0.43     7.15     0  02:56        0.43
  YS02001918           JUNCTION     0.08     0.10     7.16     0  03:03        0.10
  YS02001619           JUNCTION     0.39     0.56     7.49     0  03:01        0.56
  YS02001629           JUNCTION     0.73     0.94     7.49     0  03:05        0.93
  YS02001641           JUNCTION     0.84     1.16     7.60     0  04:17        1.10
  YS02001644           JUNCTION     0.84     1.16     7.59     0  04:17        1.09
  YS02001652           JUNCTION     0.69     0.91     7.51     0  03:09        0.90
  YS02001655           JUNCTION     0.45     0.65     7.50     0  04:15        0.65
  YS02001920           JUNCTION     0.17     0.20     7.21     0  03:02        0.20
  YS02001923           JUNCTION     0.06     0.08     7.34     0  03:02        0.08
  YS02001926           JUNCTION     0.14     0.17     7.62     0  03:01        0.17
  YS02001929           JUNCTION     0.06     0.09     7.78     0  03:01        0.09
  YS02001658           JUNCTION     0.19     0.35     7.49     0  03:08        0.34
  YS02001661           JUNCTION     0.14     0.20     7.60     0  02:48        0.20
  YS02001664           JUNCTION     0.07     0.11     8.04     0  02:48        0.11
  YS02001622           JUNCTION     0.41     0.57     7.48     0  03:06        0.57
  YS02001633           JUNCTION     0.83     1.14     7.59     0  03:13        1.07
  YS02001649           JUNCTION     0.88     1.11     7.50     0  04:17        1.08
  YS02001757           JUNCTION     1.00     1.28     7.54     0  04:18        1.23
  YS02001895           JUNCTION     0.25     0.41     7.16     0  02:56        0.41
  YS02001625           JUNCTION     0.69     0.89     7.49     0  03:05        0.88
  YS02163301           JUNCTION     0.76     0.99     7.50     0  03:05        0.98
  YS02163601           JUNCTION     0.88     1.15     7.55     0  04:17        1.11
  YS02164001           JUNCTION     0.82     1.13     7.59     0  04:17        1.08
  YS02001647           JUNCTION     0.67     0.89     7.50     0  04:18        0.88
  YSB1154              JUNCTION     0.24     0.38     9.44     0  02:17        0.38
  YSB6556              JUNCTION     0.13     0.27     9.44     0  02:17        0.27
  YSB1174              JUNCTION     0.19     0.33     9.44     0  02:17        0.33
  YSB1171              JUNCTION     0.39     0.53     9.44     0  02:17        0.53
  YS02006553           JUNCTION     0.68     0.87     7.15     0  02:55        0.87
  YS02006561           JUNCTION     0.14     0.22     6.88     0  02:57        0.22
  YS02006556           JUNCTION     0.66     0.84     7.15     0  02:55        0.84
  YS02006558           JUNCTION     0.70     0.88     7.15     0  02:55        0.88
  YS02001783           JUNCTION     0.24     0.40     6.54     0  02:57        0.40
  YS02001784           JUNCTION     0.27     0.43     6.50     0  02:58        0.43
  YS02001786           JUNCTION     0.23     0.36     6.39     0  02:58        0.36
  YS02001788           JUNCTION     0.17     0.27     6.25     0  02:58        0.27
  YS02001790           JUNCTION     0.21     0.33     5.98     0  02:59        0.33
  YS02001791           JUNCTION     0.13     0.22     5.69     0  03:02        0.22
  YS02001793           JUNCTION     0.12     0.90     5.73     0  03:46        0.85
  WS02004139           JUNCTION     0.61     0.71     5.62     0  06:50        0.71
  WSC                  OUTFALL      0.30     0.38     1.05     0  02:55        0.38
  3                    OUTFALL      0.08     0.20     6.20     0  02:50        0.20
  4                    OUTFALL      0.03     0.12     7.12     0  02:40        0.12
  5                    OUTFALL      0.00     0.00     5.00     0  00:00        0.00
  JK-storage           STORAGE      0.82     4.85     5.65     0  03:47        4.84
  CC-storage           STORAGE      0.23     0.43     7.43     0  05:01        0.43
  XR-storage           STORAGE      5.68     7.72     5.72     0  05:39        7.72
  
  
  *******************
  Node Inflow Summary
  *******************
  
  -------------------------------------------------------------------------------------------------
                                  Maximum  Maximum                  Lateral       Total        Flow
                                  Lateral    Total  Time of Max      Inflow      Inflow     Balance
                                   Inflow   Inflow   Occurrence      Volume      Volume       Error
  Node                 Type           LPS      LPS  days hr:min    10^6 ltr    10^6 ltr     Percent
  -------------------------------------------------------------------------------------------------
  WS02001211           JUNCTION      7.35   387.67     0  00:20       0.207        7.02       0.407
  WS02001212           JUNCTION      0.00   387.66     0  00:20           0        6.99       0.242
  WS02001213           JUNCTION      0.00   387.65     0  00:20           0        6.97       0.336
  WS02003069           JUNCTION      0.32   869.34     0  02:53     0.00902        14.7       0.199
  WS02003072           JUNCTION      0.00   868.23     0  02:53           0        14.7       0.246
  WS02003073           JUNCTION      1.82   869.51     0  02:54      0.0514        14.7       0.274
  WS02003060           JUNCTION     16.53   869.41     0  02:52       0.466        14.7       0.190
  WS02003066           JUNCTION      0.00   519.68     0  02:42           0        7.33       0.068
  WS02003059           JUNCTION      0.00   387.72     0  00:20           0        6.95       0.490
  WS02003067           JUNCTION      0.00   519.66     0  02:41           0        7.35       0.139
  WS02004401           JUNCTION      0.00   522.48     0  02:32           0         7.6       0.315
  WS02004402           JUNCTION      0.00   521.64     0  02:33           0        7.58       0.294
  WS02004403           JUNCTION      0.00   521.07     0  02:33           0        7.56       0.264
  WS02004404           JUNCTION      0.16   520.94     0  02:35     0.00457        7.54       0.196
  WS02004406           JUNCTION      0.00   521.05     0  02:35           0        7.51       0.478
  WS02004409           JUNCTION      0.00   520.64     0  02:35           0        7.46       0.257
  WS02004410           JUNCTION      0.00   519.96     0  02:40           0        7.44       0.284
  WS02004411           JUNCTION      0.00   519.82     0  02:41           0        7.42       0.288
  WS02004412           JUNCTION      0.00   519.74     0  02:41           0         7.4       0.306
  WS02004413           JUNCTION      0.00   519.71     0  02:41           0        7.38       0.445
  WS02004405           JUNCTION      0.04   520.99     0  02:35     0.00107        7.53       0.292
  WS02006109           JUNCTION      1.23   526.97     0  02:29      0.0347        7.71       0.283
  WS02006110           JUNCTION      0.00   527.00     0  02:29           0        7.69       0.280
  WS02006111           JUNCTION      0.00   547.24     0  02:30           0        7.66       0.065
  WS02006112           JUNCTION      9.00   536.01     0  02:30       0.026        7.68       0.411
  WS02006113           JUNCTION      0.00   527.35     0  02:29           0        7.67       0.154
  WS02006115           JUNCTION      0.00   532.09     0  02:30           0        7.65       0.306
  WS02006116           JUNCTION      0.00   525.88     0  02:31           0        7.63       0.288
  WS02006230           JUNCTION     10.28   396.40     0  04:31        0.29        6.83       0.230
  WS02006231           JUNCTION      0.00   386.61     0  04:25           0        6.55       0.207
  WS02006232           JUNCTION      0.00   386.73     0  04:24           0        6.57       0.266
  WS02006234           JUNCTION      0.00   389.11     0  04:24           0        6.58       0.153
  WS02006235           JUNCTION      0.00   390.63     0  04:24           0        6.63       0.187
  WS02006238           JUNCTION      0.00   345.66     0  07:00           0        4.81       0.173
  WS02006240           JUNCTION      0.00   339.04     0  07:00           0        4.81       0.326
  WS02006242           JUNCTION      0.00   337.91     0  03:41           0        4.82       0.390
  WS02006243           JUNCTION      0.00   342.18     0  03:41           0        4.81       0.040
  WS02006245           JUNCTION      0.00   344.58     0  03:41           0        4.82       0.300
  WS02006247           JUNCTION      0.00   349.45     0  04:21           0        4.83       0.218
  WS02006248           JUNCTION      0.00   355.22     0  04:21           0        4.84       0.145
  WS02006249           JUNCTION      0.00   422.63     0  02:40           0         5.4       0.288
  WS02006239           JUNCTION      0.00   344.28     0  07:00           0        4.81       0.277
  WS02006251           JUNCTION      0.08   423.63     0  02:40     0.00217        5.44       0.262
  WS02006252           JUNCTION      0.00   400.00     0  03:40           0        5.27       0.010
  WS02006253           JUNCTION      1.37    42.87     0  02:21     0.00336       0.179       4.781
  WS02006256           JUNCTION      0.00   599.87     0  02:50           0         4.3       0.072
  WS02004138           JUNCTION      0.00   380.00     0  00:00           0        6.84       0.075
  WS02004407           JUNCTION      0.00   520.79     0  02:35           0        7.47       0.116
  WS02006228           JUNCTION      0.00   525.74     0  02:29           0         7.7       0.204
  WS02006229           JUNCTION      0.00   525.62     0  02:29           0        7.71       0.176
  WS02006280           JUNCTION      0.00   205.15     0  02:19           0       0.897       0.008
  WS02006284           JUNCTION      0.10   205.15     0  02:19      0.0027       0.898       0.119
  WS02006287           JUNCTION      0.00   205.03     0  02:19           0       0.896       0.081
  WSF200               JUNCTION      0.00   519.70     0  02:42           0        7.33       0.072
  HS02004901           JUNCTION     11.14    11.14     0  02:11      0.0313      0.0314       5.928
  HS02004881           JUNCTION      4.51    38.85     0  02:18      0.0136       0.143       0.219
  HS02004876           JUNCTION      7.19    34.65     0  02:18      0.0261        0.13       0.407
  HS02004870           JUNCTION      7.96    27.60     0  02:18      0.0258       0.104       0.102
  HS02004862           JUNCTION      6.57    20.16     0  02:19      0.0314      0.0785       0.213
  HS02004856           JUNCTION      5.90    13.64     0  02:18      0.0194      0.0486       3.057
  HS02004852           JUNCTION      0.00     8.10     0  02:19           0      0.0292       0.174
  HS02004848           JUNCTION     13.12    13.12     0  02:22      0.0615      0.0615       0.071
  HS02004842           JUNCTION      0.00     5.46     0  02:32           0      0.0453      40.265
  HS02004837           JUNCTION     19.11    23.75     0  02:18       0.224       0.256       0.319
  HS02004830           JUNCTION      0.15    23.88     0  02:18     0.00423       0.247       0.502
  HS02004824           JUNCTION     14.79    38.49     0  02:22      0.0805       0.326       0.165
  HS02004817           JUNCTION      0.60    39.08     0  02:22      0.0169       0.342       5.117
  HS02004807           JUNCTION     14.97    52.72     0  02:20      0.0475       0.373       1.146
  HS02004802           JUNCTION      0.00    53.00     0  02:21           0       0.369       1.114
  HS02004799           JUNCTION     11.53   129.85     0  02:16      0.0384       0.465       0.490
  HS02004792           JUNCTION     51.47   118.56     0  02:16       0.168       0.427       0.096
  HS02004788           JUNCTION     17.31    69.06     0  02:17         0.1       0.261       0.150
  HS02004785           JUNCTION      0.15    52.11     0  02:16     0.00423       0.162       0.299
  HS02004777           JUNCTION      0.03    52.39     0  02:15    0.000846       0.162       3.292
  HS02004770           JUNCTION     43.62    53.57     0  02:13       0.134       0.163       1.934
  HS02004480           JUNCTION      0.00   153.13     0  02:17           0       0.543       0.134
  HS02004479           JUNCTION      0.00    23.74     0  02:19           0      0.0899       0.818
  HS02004478           JUNCTION      0.00   205.02     0  02:18           0       0.897       0.069
  YS02001745           JUNCTION     76.22    76.22     0  03:01       0.821       0.821       0.101
  YS02001748           JUNCTION      0.04   149.81     0  04:08     0.00127       0.936      -0.021
  YS02001751           JUNCTION      0.01   199.00     0  03:57     0.00031       0.948       0.426
  YS02001754           JUNCTION      0.26   140.11     0  03:56     0.00733       0.945       1.337
  YS02001762           JUNCTION      0.00   133.21     0  03:23           0       0.939       1.601
  YS02001765           JUNCTION      0.00   131.72     0  03:04           0        0.93       1.586
  YS02001767           JUNCTION      0.54   155.41     0  03:01      0.0151       0.943       2.442
  YS02001770           JUNCTION     97.68   160.56     0  03:00        0.96        1.13       1.744
  YS02001774           JUNCTION      0.00    88.74     0  04:16           0       0.328       5.482
  YS02001779           JUNCTION      0.01    83.88     0  04:16    0.000141       0.141       5.005
  YS02001882           JUNCTION      0.00     3.95     0  02:10           0     0.00526      46.789
  YS02001884           JUNCTION      0.00    11.34     0  02:07           0       0.021      30.145
  YS02001759           JUNCTION     95.32   225.16     0  03:00       0.896        1.81       0.957
  YS02001887           JUNCTION    125.09   125.09     0  02:45        1.07        1.08       0.667
  YS02001890           JUNCTION      0.00   124.92     0  02:47           0        1.06       0.748
  YS02001898           JUNCTION      0.00   124.32     0  02:47           0        1.04       0.210
  YS02001901           JUNCTION      0.00   124.25     0  02:46           0        1.04       0.531
  YS02001904           JUNCTION      0.00   123.50     0  02:51           0        1.04       0.494
  YS02001907           JUNCTION      0.00   225.51     0  02:59           0        2.23       0.997
  YS02001910           JUNCTION      0.00   103.19     0  03:00           0         1.2       0.852
  YS02001915           JUNCTION     68.22   102.76     0  03:01       0.702        1.21       0.379
  YS02001918           JUNCTION      0.00    34.80     0  03:02           0       0.504       0.224
  YS02001619           JUNCTION     66.37    66.37     0  03:01       0.693       0.694       0.217
  YS02001629           JUNCTION      0.00   127.31     0  03:56           0       0.692       1.137
  YS02001641           JUNCTION      0.00   167.22     0  03:04           0        1.43       0.972
  YS02001644           JUNCTION     72.40   237.15     0  03:05       0.788         2.2       0.772
  YS02001652           JUNCTION      0.00   131.42     0  04:00           0       0.875       1.292
  YS02001655           JUNCTION      0.15   206.67     0  04:02     0.00434       0.894       0.637
  YS02001920           JUNCTION      2.87    34.82     0  03:02      0.0809       0.506       0.405
  YS02001923           JUNCTION      0.04    31.96     0  03:02     0.00106       0.425       0.071
  YS02001926           JUNCTION      0.05    31.99     0  03:01     0.00147       0.426       0.507
  YS02001929           JUNCTION     31.96    31.96     0  03:01       0.425       0.425       0.069
  YS02001658           JUNCTION      0.00   163.29     0  04:03           0       0.889       0.037
  YS02001661           JUNCTION      0.00    88.76     0  02:48           0       0.783       0.090
  YS02001664           JUNCTION     88.77    88.77     0  02:48       0.783       0.783       0.022
  YS02001622           JUNCTION      0.00    93.09     0  03:54           0       0.696       0.749
  YS02001633           JUNCTION     73.59   182.48     0  03:06       0.811        1.47       1.462
  YS02001649           JUNCTION      0.00   344.94     0  03:03           0        3.02       0.893
  YS02001757           JUNCTION      0.00   571.91     0  03:00           0        5.57       1.381
  YS02001895           JUNCTION      0.00   124.44     0  02:47           0        1.05       0.357
  YS02001625           JUNCTION      0.00   157.31     0  04:09           0        0.71       2.738
  YS02163301           JUNCTION      0.00   114.15     0  03:05           0       0.673       2.205
  YS02163601           JUNCTION      0.11   165.77     0  03:05      0.0031        1.44       1.502
  YS02164001           JUNCTION      0.00   171.79     0  03:06           0        1.43       0.917
  YS02001647           JUNCTION      0.00   252.11     0  03:04           0        2.17       0.706
  YSB1154              JUNCTION     12.79    12.79     0  02:16      0.0465      0.0479       3.108
  YSB6556              JUNCTION      0.00    12.78     0  02:18           0      0.0489       2.613
  YSB1174              JUNCTION     12.68    12.68     0  02:10      0.0339       0.035       3.812
  YSB1171              JUNCTION      0.00    23.69     0  02:16           0      0.0894       7.605
  YS02006553           JUNCTION      0.00   225.56     0  03:00           0        2.22       0.647
  YS02006561           JUNCTION      0.00   334.07     0  03:00           0        3.15       0.021
  YS02006556           JUNCTION      0.00   225.81     0  03:03           0        2.23       0.467
  YS02006558           JUNCTION    106.10   330.59     0  02:57       0.975        3.17       0.143
  YS02001783           JUNCTION      0.00   330.58     0  02:57           0        3.14       0.049
  YS02001784           JUNCTION      1.06   331.63     0  02:57      0.0299        3.17       0.080
  YS02001786           JUNCTION      0.06   331.69     0  02:58     0.00159        3.17       0.078
  YS02001788           JUNCTION      0.07   331.77     0  02:58       0.002        3.17       0.045
  YS02001790           JUNCTION      0.15   331.93     0  02:58     0.00437        3.17       0.056
  YS02001791           JUNCTION      0.00   331.92     0  02:59           0        3.17       0.027
  YS02001793           JUNCTION      0.00   353.53     0  03:56           0        3.18       0.017
  WS02004139           JUNCTION      0.32   393.28     0  00:00     0.00905        6.84       0.500
  WSC                  OUTFALL       0.00   868.54     0  02:55           0        14.6       0.000
  3                    OUTFALL       0.00   505.59     0  02:50           0        2.46       0.000
  4                    OUTFALL       0.00   133.29     0  02:40           0        0.54       0.000
  5                    OUTFALL       0.00     0.00     0  00:00           0           0       0.000 ltr
  JK-storage           STORAGE       0.00   716.32     0  03:57           0        3.33     -22.724
  CC-storage           STORAGE       0.00   561.03     0  03:02           0        5.38      -0.739
  XR-storage           STORAGE     323.40   323.40     0  02:59        7.02        7.62      -0.001
  
  
  **********************
  Node Surcharge Summary
  **********************
  
  Surcharging occurs when water rises above the top of the highest conduit.
  ---------------------------------------------------------------------
                                               Max. Height   Min. Depth
                                   Hours       Above Crown    Below Rim
  Node                 Type      Surcharged         Meters       Meters
  ---------------------------------------------------------------------
  WS02006109           JUNCTION        2.26          0.141        1.679
  WS02006110           JUNCTION        0.06          0.005        1.845
  WS02006112           JUNCTION        0.39          0.030        1.650
  WS02006232           JUNCTION        2.81          0.099        1.381
  WS02006234           JUNCTION        0.35          0.023        1.217
  WS02006235           JUNCTION        1.44          0.069        1.221
  WS02006238           JUNCTION        2.09          0.088        1.342
  WS02006240           JUNCTION        0.17          0.022        1.368
  WS02006242           JUNCTION        1.58          0.070        0.750
  WS02006239           JUNCTION        0.44          0.040        1.250
  WS02006252           JUNCTION        3.09          0.191        0.909
  WS02006228           JUNCTION        2.09          0.167        2.033
  YS02001762           JUNCTION        2.42          0.187        0.963
  YS02001765           JUNCTION        0.50          0.140        0.960
  YS02001767           JUNCTION        0.05          0.261        0.769
  YS02001774           JUNCTION        1.51          0.063        0.987
  YS02001759           JUNCTION        3.02          0.215        0.995
  YS02001641           JUNCTION        0.96          0.164        0.936
  YS02001644           JUNCTION        1.15          0.159        0.761
  YS02001633           JUNCTION        0.07          0.116        0.944
  YS02001649           JUNCTION        2.72          0.114        0.936
  YS02001757           JUNCTION        4.16          0.282        0.928
  YS02163601           JUNCTION        2.60          0.151        0.929
  YS02164001           JUNCTION        0.32          0.129        0.971
  
  
  *********************
  Node Flooding Summary
  *********************
  
  Flooding refers to all water that overflows a node, whether it ponds or not.
  --------------------------------------------------------------------------
                                                             Total   Maximum
                                 Maximum   Time of Max       Flood    Ponded
                        Hours       Rate    Occurrence      Volume     Depth
  Node                 Flooded       LPS   days hr:min    10^6 ltr    Meters
  --------------------------------------------------------------------------
  XR-storage              0.27    148.34      0  06:00       0.064     0.000
  
  
  **********************
  Storage Volume Summary
  **********************
  
  --------------------------------------------------------------------------------------------------
                         Average     Avg  Evap Exfil       Maximum     Max    Time of Max    Maximum
                          Volume    Pcnt  Pcnt  Pcnt        Volume    Pcnt     Occurrence    Outflow
  Storage Unit           1000 m3    Full  Loss  Loss       1000 m3    Full    days hr:min        LPS
  --------------------------------------------------------------------------------------------------
  JK-storage               0.041      14     0     0         0.244      84       0  03:47     599.87
  CC-storage               0.646       4     0     0         1.211       8       0  05:01     400.00
  XR-storage               0.682      74     0     0         0.926     100       0  05:39     380.00
  
  
  ***********************
  Outfall Loading Summary
  ***********************
  
  -----------------------------------------------------------
                         Flow       Avg       Max       Total
                         Freq      Flow      Flow      Volume
  Outfall Node           Pcnt       LPS       LPS    10^6 ltr
  -----------------------------------------------------------
  WSC                   99.99    591.72    868.54      14.633
  3                     86.38    144.70    505.59       2.457
  4                     49.97     47.74    133.29       0.540
  5                      0.00      0.00      0.00       0.000
  -----------------------------------------------------------
  System                59.09    784.16   1258.00      17.631
  
  
  ********************
  Link Flow Summary
  ********************
  
  -----------------------------------------------------------------------------
                                 Maximum  Time of Max   Maximum    Max/    Max/
                                  |Flow|   Occurrence   |Veloc|    Full    Full
  Link                 Type          LPS  days hr:min     m/sec    Flow   Depth
  -----------------------------------------------------------------------------
  WS02003066WSF200     CONDUIT    519.70     0  02:42      2.76    0.09    0.23
  WS02006287WS02006284 CONDUIT    205.05     0  02:19      1.62    0.10    0.22
  WS02006284WS02006280 CONDUIT    205.15     0  02:19      1.86    0.09    0.20
  WS02006280WS02006229 CONDUIT    205.15     0  02:19      2.99    0.04    0.14
  WS02006229WS02006228 CONDUIT    525.74     0  02:29      1.05    1.74    1.00
  WS02006256WS02006235 CONDUIT    166.25     0  00:01      2.58    1.76    1.00
  WS02006253WS02006251 CONDUIT     44.98     0  02:24      0.49    0.13    0.93
  WS02006252WS02006251 CONDUIT    400.34     0  04:20      3.19    1.47    1.00
  WS02006251WS02006249 CONDUIT    422.63     0  02:40      1.17    1.22    0.90
  WS02006249WS02006248 CONDUIT    355.22     0  04:21      1.21    1.95    0.86
  WS02006248WS02006247 CONDUIT    349.45     0  04:21      1.17    0.76    0.90
  WS02006247WS02006245 CONDUIT    344.58     0  03:41      1.14    2.73    0.94
  WS02006245WS02006243 CONDUIT    342.18     0  03:41      1.19    1.01    0.96
  WS02006243WS02006242 CONDUIT    337.91     0  03:41      1.00    0.72    1.00
  WS02006242WS02006240 CONDUIT    339.04     0  07:00      0.93    1.35    1.00
  WS02006240WS02006239 CONDUIT    344.28     0  07:00      0.97    1.08    1.00
  WS02006239WS02006238 CONDUIT    345.66     0  07:00      0.91    1.11    1.00
  WS02006238WS02006235 CONDUIT    345.55     0  07:00      1.25    0.77    1.00
  WS02006235WS02006234 CONDUIT    389.11     0  04:24      1.04    4.11    1.00
  WS02006234WS02006232 CONDUIT    386.73     0  04:24      1.13    0.78    1.00
  WS02006232WS02006231 CONDUIT    386.61     0  04:25      1.06    0.81    0.97
  WS02006231WS02006230 CONDUIT    386.13     0  04:31      1.35    5.86    0.92
  WS02006230WS02006229 CONDUIT    396.45     0  04:31      1.03    8.82    1.00
  WS02006228WS02006109 CONDUIT    525.74     0  02:29      1.05    2.30    1.00
  WS02006116WS02004401 CONDUIT    522.48     0  02:32      0.76    0.72    0.83
  WS02006115WS02006116 CONDUIT    525.88     0  02:31      0.88    0.67    0.75
  WS02006113WS02006111 CONDUIT    547.24     0  02:30      2.44    0.66    0.46
  WS02006112WS02006115 CONDUIT    532.09     0  02:30      0.75    0.31    0.86
  WS02006111WS02006112 CONDUIT    530.22     0  02:30      1.48    0.25    0.67
  WS02006110WS02006113 CONDUIT    527.35     0  02:29      1.25    0.48    0.78
  WS02006109WS02006110 CONDUIT    527.00     0  02:29      1.05    1.01    1.00
  WS02004411WS02004412 CONDUIT    519.74     0  02:41      0.91    0.74    0.68
  WS02004401WS02004402 CONDUIT    521.64     0  02:33      0.77    0.63    0.85
  WS02004413WS02003067 CONDUIT    519.66     0  02:41      1.09    0.22    0.58
  WS02004412WS02004413 CONDUIT    519.71     0  02:41      0.80    0.35    0.77
  WS02004410WS02004411 CONDUIT    519.82     0  02:41      0.93    0.71    0.68
  WS02004409WS02004410 CONDUIT    519.96     0  02:40      0.96    0.67    0.66
  WS02004407WS02004409 CONDUIT    520.64     0  02:35      1.47    0.18    0.47
  WS02004406WS02004407 CONDUIT    520.79     0  02:35      1.02    0.23    0.62
  WS02004405WS02004406 CONDUIT    521.05     0  02:35      0.68    1.03    0.95
  WS02004404WS02004405 CONDUIT    520.96     0  02:35      0.84    5.10    0.95
  WS02004403WS02004404 CONDUIT    520.78     0  02:35      0.74    0.38    0.92
  WS02004402WS02004403 CONDUIT    521.07     0  02:33      0.75    0.75    0.87
  WS02004139WS02001211 CONDUIT    380.32     0  00:20      0.90    0.48    0.58
  WS02004138WS02004139 CONDUIT    392.96     0  00:00      3.64    0.08    0.43
  WS02003067WS02003066 CONDUIT    519.68     0  02:42      1.18    0.17    0.41
  WS02001213WS02003059 CONDUIT    387.72     0  00:20      0.90    0.64    0.75
  WS02001212WS02001213 CONDUIT    387.65     0  00:20      1.32    0.60    0.44
  WS02001211WS02001212 CONDUIT    387.66     0  00:20      0.78    0.30    0.62
  WS02003072WS02003073 CONDUIT    867.69     0  02:54      1.68    1.87    0.47
  WS02003069WS02003072 CONDUIT    868.23     0  02:53      1.58    0.42    0.49
  WS02003060WS02003069 CONDUIT    869.02     0  02:53      1.83    0.34    0.44
  WS02003059WS02003060 CONDUIT    387.68     0  00:20      0.95    0.25    0.64
  HS02004901HS02004770 CONDUIT     10.28     0  02:16      0.05    0.04    0.32
  HS02004876HS02004881 CONDUIT     34.72     0  02:19      0.56    0.37    0.09
  HS02004870HS02004876 CONDUIT     27.58     0  02:19      0.39    0.02    0.10
  HS02004842HS02004848 CONDUIT      5.46     0  02:32      0.03    0.00    0.27
  HS02004837HS02004842 CONDUIT      5.63     0  02:32      0.41    0.00    0.29
  HS02004830HS02004837 CONDUIT     23.73     0  02:18      0.44    0.02    0.08
  HS02004824HS02004830 CONDUIT     23.88     0  02:19      0.48    0.03    0.07
  HS02004817HS02004824 CONDUIT     38.48     0  02:22      0.17    0.02    0.40
  HS02004770HS02004777 CONDUIT     52.36     0  02:15      0.23    0.10    0.33
  HS02004799HS02004480 CONDUIT    129.66     0  02:17      0.59    0.16    0.31
  HS02004792HS02004799 CONDUIT    118.50     0  02:16      0.68    0.07    0.25
  HS02004788HS02004792 CONDUIT     69.00     0  02:17      0.83    0.05    0.12
  HS02004785HS02004788 CONDUIT     52.01     0  02:17      0.51    0.39    0.14
  HS02004777HS02004785 CONDUIT     51.96     0  02:16      0.27    0.06    0.27
  HS02004480HS02004478 CONDUIT    153.09     0  02:17      0.96    0.64    0.23
  HS02004479HS02004480 CONDUIT     23.95     0  02:19      0.16    0.02    0.31
  HS02004862HS02004870 CONDUIT     20.12     0  02:20      0.47    0.02    0.06
  HS02004848HS02004852 CONDUIT      8.10     0  02:19      0.31    0.01    0.04
  HS02004856HS02004862 CONDUIT     13.61     0  02:19      0.34    0.01    0.06
  HS02004852HS02004856 CONDUIT      8.07     0  02:20      0.12    0.01    0.09
  HS02004802HS02004478 CONDUIT     53.38     0  02:22      0.30    0.05    0.26
  HS02004478WS02006287 CONDUIT    205.03     0  02:19      1.32    0.06    0.17
  HS02004817HS02004807 CONDUIT     39.63     0  02:24      0.11    0.02    0.51
  HS02004807HS02004802 CONDUIT     53.00     0  02:21      0.25    0.10    0.30
  YS02001759YS02001757 CONDUIT    229.62     0  02:58      0.29    0.16    1.00
  YS02001762YS02001759 CONDUIT    139.58     0  03:23      0.18    0.16    1.00
  YS02001765YS02001762 CONDUIT    133.21     0  03:23      0.23    0.12    1.00
  YS02001770YS02001767 CONDUIT    154.88     0  03:01      0.32    0.61    0.99
  YS02001774YS02001770 CONDUIT     88.74     0  04:16      0.15    0.06    0.97
  YS02001779YS02001774 CONDUIT     83.87     0  04:16      0.11    0.04    0.91
  YS02001649YS02001757 CONDUIT    344.98     0  03:13      0.44    0.21    1.00
  YS02001767YS02001765 CONDUIT    131.72     0  03:04      0.26    0.17    1.00
  YS02006561YS02001783 CONDUIT    330.58     0  02:57      1.81    0.17    0.39
  YS02001783YS02001784 CONDUIT    330.57     0  02:57      1.25    0.46    0.52
  YS02001784YS02001785 CONDUIT    331.64     0  02:58      1.34    0.77    0.50
  YS02001788YS02001790 CONDUIT    331.78     0  02:58      1.90    0.24    0.38
  YS02001790YS02001791 CONDUIT    331.92     0  02:59      2.20    0.36    0.34
  YS02001791YS02001793 CONDUIT    331.92     0  02:59      4.46    0.14    0.61
  YS02001910YS02001907 CONDUIT    103.29     0  03:01      0.49    0.06    0.75
  YS02001786YS02001788 CONDUIT    331.70     0  02:58      1.78    0.64    0.40
  YS02001915YS02001910 CONDUIT    103.19     0  03:00      0.44    0.05    0.54
  YS02001918YS02001915 CONDUIT     34.78     0  03:03      0.44    0.02    0.26
  YS02001923YS02001920 CONDUIT     31.95     0  03:02      0.46    0.01    0.14
  YS02001926YS02001923 CONDUIT     31.92     0  03:02      0.50    0.05    0.14
  YS02001929YS02001926 CONDUIT     31.94     0  03:01      0.53    0.02    0.13
  YS02001920YS02001918 CONDUIT     34.80     0  03:02      0.47    0.03    0.15
  YS02001629YS02163301 CONDUIT    114.15     0  03:05      0.15    0.14    0.96
  YS02001619YS02001622 CONDUIT     93.09     0  03:54      0.65    0.14    0.57
  YS02001622YS02001625 CONDUIT    110.57     0  03:54      0.25    0.06    0.73
  YS02001625YS02001629 CONDUIT    127.31     0  03:56      0.25    0.06    0.72
  YS02163301YS02001633 CONDUIT    111.62     0  03:06      0.14    0.10    0.99
  YS02163601YS02164001 CONDUIT    171.79     0  03:06      0.22    0.15    1.00
  YS02164001YS02001641 CONDUIT    167.22     0  03:04      0.21    0.23    1.00
  YS02001641YS02001644 CONDUIT    167.17     0  03:05      0.21    0.54    1.00
  YS02001647YS02001649 CONDUIT    247.93     0  03:07      0.33    0.13    0.95
  YS02006553YS02006556 CONDUIT    225.81     0  03:03      0.32    0.19    0.83
  YS02006556YS02006558 CONDUIT    226.01     0  03:03      0.32    0.18    0.86
  YSB6556YSB1171       CONDUIT     12.95     0  02:20      0.06    0.01    0.57
  YS02001907YS02006553 CONDUIT    225.56     0  03:00      0.27    0.27    0.94
  YS02006558YS02006561 CONDUIT    334.07     0  03:00      2.35    0.74    0.50
  YS02001633YS02163601 CONDUIT    165.66     0  03:05      0.21    0.17    1.00
  YS02001644YS02001647 CONDUIT    252.11     0  03:04      0.33    0.15    0.95
  YS02001745YS02001748 CONDUIT     76.21     0  03:01      1.41    0.03    0.22
  YS02001748YS02001751 CONDUIT    198.99     0  03:57      1.09    0.10    0.49
  YS02001751YS02001754 CONDUIT    104.15     0  03:02      0.96    0.05    0.72
  YS02001754YS02001757 CONDUIT    172.63     0  03:57      0.33    0.07    0.94
  YS02001882YS02001884 CONDUIT      3.95     0  02:10      0.06    0.00    0.47
  YS02001884YS02001887 CONDUIT     11.34     0  02:07      0.06    0.02    0.57
  YS02001890YS02001895 CONDUIT    124.44     0  02:47      0.29    0.06    0.54
  YS02001895YS02001898 CONDUIT    124.32     0  02:47      0.48    0.22    0.40
  YS02001898YS02001901 CONDUIT    124.25     0  02:46      0.34    0.08    0.48
  YS02001901YS02001904 CONDUIT    123.50     0  02:51      0.29    0.19    0.53
  YS02001904YS02001907 CONDUIT    123.60     0  02:51      0.21    0.04    0.69
  YS02001887YS02001890 CONDUIT    124.92     0  02:47      0.24    0.21    0.62
  YS02001652YS02001649 CONDUIT    192.31     0  04:02      0.32    0.10    0.96
  YS02001655YS02001652 CONDUIT    123.11     0  03:10      1.04    0.06    0.76
  YS02001658YS02001655 CONDUIT    206.52     0  04:02      1.26    0.09    0.47
  YS02001661YS02001658 CONDUIT     88.76     0  02:48      1.46    0.03    0.24
  YS02001664YS02001661 CONDUIT     88.76     0  02:48      1.13    0.03    0.16
  YSB1154YSB6556       CONDUIT     12.78     0  02:18      0.19    0.02    0.46
  YSB1174YSB1171       CONDUIT     11.77     0  02:11      0.05    0.02    0.58
  YSB1171HS02004479    CONDUIT     23.74     0  02:19      0.54    0.02    0.45
  HS02004881HS02006253 CONDUIT     38.85     0  02:18      1.66    0.01    0.25
  YS02001793JiankangQianchi CONDUIT    716.32     0  03:57     13.41    0.06    0.95
  YS02001757CaochengTiaoxuchi CONDUIT    561.03     0  03:02      1.25    0.25    0.72
  WSF200WS02003060     CONDUIT    520.32     0  02:42      1.86    0.12    0.33
  1                    CONDUIT    868.54     0  02:55      3.20    0.30    0.38
  2                    CONDUIT    133.29     0  02:40      5.25    0.32    0.39
  3                    CONDUIT    505.59     0  02:50      9.82    0.81    0.68
  4                    CONDUIT      0.00     0  00:00      0.00    0.00    0.00
  CC-Pump-1            PUMP       200.00     0  03:30              1.00
  CC-Pump-2            PUMP       200.00     0  02:23              1.00
  JK-Pump-1            PUMP       300.00     0  02:36              1.00
  JK-Pump-2            PUMP       300.00     0  00:00              1.00
  XR-Pump-1            PUMP        95.00     0  00:00              1.00
  XR-Pump-2            PUMP        95.00     0  00:00              1.00
  XR-Pump-3            PUMP        95.00     0  00:00              1.00
  XR-Pump-4            PUMP        95.00     0  00:00              1.00
  
  
  ***************************
  Flow Classification Summary
  ***************************
  
  -------------------------------------------------------------------------------------
                      Adjusted    ---------- Fraction of Time in Flow Class ---------- 
                       /Actual         Up    Down  Sub   Sup   Up    Down  Norm  Inlet 
  Conduit               Length    Dry  Dry   Dry   Crit  Crit  Crit  Crit  Ltd   Ctrl  
  -------------------------------------------------------------------------------------
  WS02003066WSF200        1.00   0.05  0.02  0.00  0.00  0.94  0.00  0.00  0.69  0.00
  WS02006287WS02006284    1.00   0.04  0.01  0.00  0.67  0.28  0.00  0.00  0.77  0.00
  WS02006284WS02006280    1.00   0.05  0.00  0.00  0.00  0.00  0.00  0.95  0.00  0.00
  WS02006280WS02006229    1.00   0.05  0.00  0.00  0.00  0.00  0.00  0.95  0.00  0.00
  WS02006229WS02006228    1.00   0.00  0.00  0.00  0.99  0.00  0.00  0.01  0.00  0.00
  WS02006256WS02006235    1.00   0.00  0.00  0.00  1.00  0.00  0.00  0.00  0.00  0.00
  WS02006253WS02006251    1.00   0.03  0.01  0.00  0.96  0.00  0.00  0.00  0.00  0.00
  WS02006252WS02006251    1.00   0.09  0.00  0.00  0.00  0.00  0.91  0.00  0.00  0.00
  WS02006251WS02006249    1.00   0.00  0.00  0.00  1.00  0.00  0.00  0.00  0.27  0.00
  WS02006249WS02006248    1.00   0.00  0.02  0.00  0.90  0.00  0.08  0.00  0.00  0.00
  WS02006248WS02006247    1.00   0.02  0.00  0.00  0.97  0.00  0.00  0.00  0.17  0.00
  WS02006247WS02006245    1.00   0.02  0.00  0.00  0.98  0.00  0.00  0.00  0.00  0.00
  WS02006245WS02006243    1.00   0.01  0.00  0.00  0.94  0.00  0.00  0.04  0.01  0.00
  WS02006243WS02006242    1.00   0.01  0.00  0.00  0.99  0.00  0.00  0.00  0.26  0.00
  WS02006242WS02006240    1.00   0.00  0.00  0.00  1.00  0.00  0.00  0.00  0.00  0.00
  WS02006240WS02006239    1.00   0.00  0.00  0.00  0.95  0.00  0.00  0.04  0.01  0.00
  WS02006239WS02006238    1.00   0.00  0.00  0.00  1.00  0.00  0.00  0.00  0.00  0.00
  WS02006238WS02006235    1.00   0.00  0.00  0.00  1.00  0.00  0.00  0.00  0.00  0.00
  WS02006235WS02006234    1.00   0.00  0.00  0.00  0.95  0.00  0.05  0.00  0.00  0.00
  WS02006234WS02006232    1.00   0.00  0.00  0.00  1.00  0.00  0.00  0.00  0.11  0.00
  WS02006232WS02006231    1.00   0.00  0.00  0.00  0.99  0.00  0.00  0.00  0.00  0.00
  WS02006231WS02006230    1.00   0.00  0.00  0.00  0.68  0.00  0.32  0.00  0.00  0.00
  WS02006230WS02006229    1.00   0.00  0.00  0.00  0.98  0.00  0.00  0.02  0.01  0.00
  WS02006228WS02006109    1.00   0.00  0.00  0.00  1.00  0.00  0.00  0.00  0.00  0.00
  WS02006116WS02004401    1.00   0.03  0.00  0.00  0.97  0.00  0.00  0.00  0.00  0.00
  WS02006115WS02006116    1.00   0.03  0.00  0.00  0.97  0.00  0.00  0.01  0.00  0.00
  WS02006113WS02006111    1.00   0.02  0.00  0.00  0.00  0.98  0.00  0.00  0.11  0.00
  WS02006112WS02006115    1.00   0.02  0.00  0.00  0.97  0.00  0.00  0.00  0.00  0.00
  WS02006111WS02006112    1.00   0.02  0.00  0.00  0.97  0.00  0.00  0.00  0.98  0.00
  WS02006110WS02006113    1.00   0.01  0.01  0.00  0.98  0.00  0.00  0.00  0.00  0.00
  WS02006109WS02006110    1.00   0.00  0.01  0.00  0.98  0.00  0.01  0.00  0.00  0.00
  WS02004411WS02004412    1.00   0.04  0.00  0.00  0.96  0.00  0.00  0.00  0.00  0.00
  WS02004401WS02004402    1.00   0.03  0.00  0.00  0.97  0.00  0.00  0.00  0.00  0.00
  WS02004413WS02003067    1.00   0.04  0.01  0.00  0.00  0.00  0.94  0.00  0.00  0.00
  WS02004412WS02004413    1.00   0.04  0.00  0.00  0.96  0.00  0.00  0.00  0.03  0.00
  WS02004410WS02004411    1.00   0.04  0.00  0.00  0.96  0.00  0.00  0.00  0.04  0.00
  WS02004409WS02004410    1.00   0.04  0.00  0.00  0.96  0.00  0.00  0.00  0.04  0.00
  WS02004407WS02004409    1.00   0.04  0.00  0.00  0.96  0.00  0.00  0.00  0.89  0.00
  WS02004406WS02004407    1.00   0.00  0.04  0.00  0.96  0.00  0.00  0.00  0.00  0.00
  WS02004405WS02004406    1.00   0.00  0.00  0.00  1.00  0.00  0.00  0.00  0.00  0.00
  WS02004404WS02004405    1.00   0.00  0.00  0.00  1.00  0.00  0.00  0.00  0.00  0.00
  WS02004403WS02004404    1.00   0.00  0.03  0.00  0.97  0.00  0.00  0.00  0.01  0.00
  WS02004402WS02004403    1.00   0.03  0.00  0.00  0.97  0.00  0.00  0.00  0.00  0.00
  WS02004139WS02001211    1.00   0.00  0.00  0.00  1.00  0.00  0.00  0.00  0.00  0.00
  WS02004138WS02004139    1.00   0.00  0.00  0.00  0.99  0.01  0.00  0.00  1.00  0.00
  WS02003067WS02003066    1.00   0.06  0.00  0.00  0.94  0.00  0.00  0.00  0.00  0.00
  WS02001213WS02003059    1.00   0.00  0.00  0.00  0.99  0.00  0.00  0.00  0.00  0.00
  WS02001212WS02001213    1.00   0.00  0.00  0.00  0.87  0.00  0.13  0.00  0.00  0.00
  WS02001211WS02001212    1.00   0.00  0.00  0.00  1.00  0.00  0.00  0.00  0.00  0.00
  WS02003072WS02003073    1.00   0.00  0.00  0.00  0.00  0.00  0.00  1.00  0.00  0.00
  WS02003069WS02003072    1.00   0.00  0.00  0.00  0.99  0.01  0.00  0.00  0.24  0.00
  WS02003060WS02003069    1.00   0.00  0.00  0.00  0.98  0.02  0.00  0.00  0.13  0.00
  WS02003059WS02003060    1.00   0.00  0.00  0.00  1.00  0.00  0.00  0.00  0.01  0.00
  HS02004901HS02004770    1.00   0.04  0.00  0.00  0.95  0.00  0.00  0.00  0.02  0.00
  HS02004876HS02004881    1.00   0.02  0.00  0.00  0.98  0.00  0.00  0.00  0.00  0.00
  HS02004870HS02004876    1.00   0.01  0.00  0.00  0.99  0.00  0.00  0.00  0.95  0.00
  HS02004842HS02004848    1.00   0.00  0.05  0.00  0.95  0.00  0.00  0.00  0.68  0.00
  HS02004837HS02004842    1.00   0.00  0.00  0.00  0.99  0.01  0.00  0.00  0.11  0.00
  HS02004830HS02004837    1.00   0.00  0.00  0.00  1.00  0.00  0.00  0.00  0.99  0.00
  HS02004824HS02004830    1.00   0.00  0.00  0.00  1.00  0.00  0.00  0.00  0.00  0.00
  HS02004817HS02004824    1.00   0.00  0.00  0.00  1.00  0.00  0.00  0.00  1.00  0.00
  HS02004770HS02004777    1.00   0.00  0.05  0.00  0.95  0.00  0.00  0.00  0.07  0.00
  HS02004799HS02004480    1.00   0.00  0.03  0.00  0.94  0.00  0.03  0.00  0.00  0.00
  HS02004792HS02004799    1.00   0.00  0.00  0.00  0.99  0.01  0.00  0.00  0.98  0.00
  HS02004788HS02004792    1.00   0.00  0.00  0.00  0.99  0.01  0.00  0.00  0.98  0.00
  HS02004785HS02004788    1.00   0.00  0.00  0.00  1.00  0.00  0.00  0.00  0.00  0.00
  HS02004777HS02004785    1.00   0.00  0.00  0.00  1.00  0.00  0.00  0.00  0.21  0.00
  HS02004480HS02004478    1.00   0.05  0.00  0.00  0.71  0.00  0.00  0.24  0.00  0.00
  HS02004479HS02004480    1.00   0.03  0.00  0.00  0.97  0.00  0.00  0.00  0.16  0.00
  HS02004862HS02004870    1.00   0.00  0.00  0.00  1.00  0.00  0.00  0.00  0.06  0.00
  HS02004848HS02004852    1.00   0.05  0.00  0.00  0.95  0.00  0.00  0.00  0.71  0.00
  HS02004856HS02004862    1.00   0.00  0.07  0.00  0.93  0.00  0.00  0.00  0.74  0.00
  HS02004852HS02004856    1.00   0.05  0.01  0.00  0.95  0.00  0.00  0.00  0.83  0.00
  HS02004802HS02004478    1.00   0.05  0.01  0.00  0.95  0.00  0.00  0.00  0.01  0.00
  HS02004478WS02006287    1.00   0.06  0.00  0.00  0.86  0.09  0.00  0.00  0.77  0.00
  HS02004817HS02004807    1.00   0.00  0.05  0.00  0.95  0.00  0.00  0.00  0.00  0.00
  HS02004807HS02004802    1.00   0.05  0.00  0.00  0.95  0.00  0.00  0.00  0.01  0.00
  YS02001759YS02001757    1.00   0.00  0.00  0.00  1.00  0.00  0.00  0.00  0.17  0.00
  YS02001762YS02001759    1.00   0.00  0.00  0.00  1.00  0.00  0.00  0.00  0.04  0.00
  YS02001765YS02001762    1.00   0.00  0.00  0.00  1.00  0.00  0.00  0.00  0.22  0.00
  YS02001770YS02001767    1.00   0.00  0.00  0.00  1.00  0.00  0.00  0.00  0.00  0.00
  YS02001774YS02001770    1.00   0.00  0.05  0.00  0.95  0.00  0.00  0.00  0.07  0.00
  YS02001779YS02001774    1.00   0.00  0.00  0.00  1.00  0.00  0.00  0.00  0.26  0.00
  YS02001649YS02001757    1.00   0.00  0.00  0.00  1.00  0.00  0.00  0.00  0.19  0.00
  YS02001767YS02001765    1.00   0.00  0.00  0.00  1.00  0.00  0.00  0.00  0.01  0.00
  YS02006561YS02001783    1.00   0.07  0.00  0.00  0.00  0.93  0.00  0.00  0.73  0.00
  YS02001783YS02001784    1.00   0.00  0.07  0.00  0.93  0.00  0.00  0.00  0.00  0.00
  YS02001784YS02001785    1.00   0.00  0.00  0.00  1.00  0.00  0.00  0.00  0.25  0.00
  YS02001788YS02001790    1.00   0.00  0.00  0.00  0.07  0.93  0.00  0.00  0.76  0.00
  YS02001790YS02001791    1.00   0.00  0.00  0.00  0.02  0.98  0.00  0.00  0.55  0.00
  YS02001791YS02001793    1.00   0.00  0.00  0.00  0.07  0.93  0.00  0.00  0.06  0.00
  YS02001910YS02001907    1.00   0.00  0.00  0.00  0.97  0.00  0.00  0.03  0.13  0.00
  YS02001786YS02001788    1.00   0.00  0.00  0.00  0.07  0.93  0.00  0.00  0.00  0.00
  YS02001915YS02001910    1.00   0.00  0.00  0.00  0.99  0.01  0.00  0.00  0.24  0.00
  YS02001918YS02001915    1.00   0.00  0.01  0.00  0.98  0.01  0.00  0.00  0.81  0.00
  YS02001923YS02001920    1.00   0.00  0.00  0.00  1.00  0.00  0.00  0.00  1.00  0.00
  YS02001926YS02001923    1.00   0.00  0.03  0.00  0.00  0.00  0.97  0.00  0.00  0.00
  YS02001929YS02001926    1.00   0.00  0.05  0.00  0.95  0.00  0.00  0.00  0.87  0.00
  YS02001920YS02001918    1.00   0.00  0.01  0.00  0.99  0.00  0.00  0.00  0.00  0.00
  YS02001629YS02163301    1.00   0.06  0.00  0.00  0.94  0.00  0.00  0.00  0.00  0.00
  YS02001619YS02001622    1.00   0.04  0.00  0.00  0.96  0.00  0.00  0.00  0.00  0.00
  YS02001622YS02001625    1.00   0.05  0.00  0.00  0.95  0.00  0.00  0.00  0.13  0.00
  YS02001625YS02001629    1.00   0.05  0.03  0.00  0.91  0.00  0.02  0.00  0.00  0.00
  YS02163301YS02001633    1.00   0.00  0.06  0.00  0.94  0.00  0.00  0.00  0.00  0.00
  YS02163601YS02164001    1.00   0.00  0.04  0.00  0.96  0.00  0.00  0.00  0.00  0.00
  YS02164001YS02001641    1.00   0.01  0.03  0.00  0.96  0.00  0.00  0.00  0.07  0.00
  YS02001641YS02001644    1.00   0.00  0.01  0.00  0.99  0.00  0.00  0.00  0.00  0.00
  YS02001647YS02001649    1.00   0.00  0.07  0.00  0.93  0.00  0.00  0.00  0.01  0.00
  YS02006553YS02006556    1.00   0.01  0.00  0.00  0.99  0.00  0.00  0.00  0.03  0.00
  YS02006556YS02006558    1.00   0.00  0.00  0.00  1.00  0.00  0.00  0.00  0.00  0.00
  YSB6556YSB1171          1.00   0.03  0.01  0.00  0.96  0.00  0.00  0.00  0.00  0.00
  YS02001907YS02006553    1.00   0.00  0.02  0.00  0.97  0.00  0.00  0.00  0.00  0.00
  YS02006558YS02006561    1.00   0.07  0.00  0.00  0.00  0.93  0.00  0.00  0.70  0.00
  YS02001633YS02163601    1.00   0.00  0.01  0.00  0.99  0.00  0.00  0.00  0.20  0.00
  YS02001644YS02001647    1.00   0.00  0.07  0.00  0.93  0.00  0.00  0.00  0.00  0.00
  YS02001745YS02001748    1.00   0.00  0.00  0.00  0.68  0.05  0.00  0.27  0.56  0.00
  YS02001748YS02001751    1.00   0.00  0.00  0.00  0.97  0.03  0.00  0.00  0.26  0.00
  YS02001751YS02001754    1.00   0.00  0.00  0.00  0.92  0.00  0.00  0.07  0.02  0.00
  YS02001754YS02001757    1.00   0.00  0.00  0.00  0.99  0.01  0.00  0.00  0.26  0.00
  YS02001882YS02001884    1.00   0.06  0.00  0.00  0.94  0.00  0.00  0.00  0.00  0.00
  YS02001884YS02001887    1.00   0.03  0.01  0.00  0.96  0.00  0.00  0.00  0.00  0.00
  YS02001890YS02001895    1.00   0.00  0.06  0.00  0.94  0.00  0.00  0.00  0.00  0.00
  YS02001895YS02001898    1.00   0.06  0.00  0.00  0.93  0.00  0.01  0.00  0.00  0.00
  YS02001898YS02001901    1.00   0.06  0.00  0.00  0.93  0.00  0.00  0.00  0.02  0.00
  YS02001901YS02001904    1.00   0.06  0.00  0.00  0.94  0.00  0.00  0.00  0.00  0.00
  YS02001904YS02001907    1.00   0.00  0.06  0.00  0.94  0.00  0.00  0.00  0.00  0.00
  YS02001887YS02001890    1.00   0.00  0.00  0.00  0.97  0.00  0.02  0.00  0.00  0.00
  YS02001652YS02001649    1.00   0.00  0.00  0.00  1.00  0.00  0.00  0.00  0.26  0.00
  YS02001655YS02001652    1.00   0.00  0.00  0.00  0.93  0.00  0.00  0.07  0.02  0.00
  YS02001658YS02001655    1.00   0.00  0.06  0.00  0.92  0.03  0.00  0.00  0.22  0.00
  YS02001661YS02001658    1.00   0.06  0.00  0.00  0.72  0.23  0.00  0.00  0.72  0.00
  YS02001664YS02001661    1.00   0.04  0.00  0.00  0.72  0.23  0.00  0.00  0.86  0.00
  YSB1154YSB6556          1.00   0.04  0.00  0.00  0.96  0.00  0.00  0.00  0.02  0.00
  YSB1174YSB1171          1.00   0.03  0.01  0.00  0.96  0.00  0.00  0.00  0.00  0.00
  YSB1171HS02004479       1.00   0.03  0.00  0.00  0.97  0.00  0.00  0.00  0.13  0.00
  HS02004881HS02006253    1.00   0.03  0.00  0.00  0.82  0.01  0.00  0.14  0.61  0.00
  YS02001793JiankangQianchi    1.00   0.00  0.00  0.00  0.25  0.75  0.00  0.00  0.19  0.00
  YS02001757CaochengTiaoxuchi    1.00   0.00  0.09  0.00  0.91  0.00  0.00  0.00  0.00  0.00
  WSF200WS02003060        1.00   0.00  0.05  0.00  0.73  0.22  0.00  0.00  0.39  0.00
  1                       1.00   0.00  0.00  0.00  0.00  1.00  0.00  0.00  0.43  0.00
  2                       1.00   0.50  0.00  0.00  0.00  0.50  0.00  0.00  0.13  0.00
  3                       1.00   0.13  0.00  0.00  0.00  0.87  0.00  0.00  0.29  0.00
  4                       1.00   1.00  0.00  0.00  0.00  0.00  0.00  0.00  0.00  0.00
  
  
  *************************
  Conduit Surcharge Summary
  *************************
  
  ----------------------------------------------------------------------------
                                                           Hours        Hours 
                         --------- Hours Full --------   Above Full   Capacity
  Conduit                Both Ends  Upstream  Dnstream   Normal Flow   Limited
  ----------------------------------------------------------------------------
  WS02006229WS02006228        2.09      2.48      2.09      4.49         2.09
  WS02006256WS02006235        5.72      5.72      7.25      1.95         0.01
  WS02006252WS02006251        1.71      1.71      3.09      2.73         0.01
  WS02006251WS02006249        0.01      0.01      0.01      1.76         0.01
  WS02006249WS02006248        0.01      0.01      0.01      4.51         0.01
  WS02006247WS02006245        0.01      0.01      0.01      4.84         0.01
  WS02006245WS02006243        0.01      0.01      0.01      0.03         0.01
  WS02006243WS02006242        0.01      0.01      1.58      0.01         0.01
  WS02006242WS02006240        0.17      0.17      2.24      3.08         0.01
  WS02006240WS02006239        0.25      0.25      0.44      0.22         0.01
  WS02006239WS02006238        1.93      1.94      2.09      0.38         0.26
  WS02006238WS02006235        1.78      1.78      2.61      0.01         0.01
  WS02006235WS02006234        0.35      0.35      1.44      5.74         0.01
  WS02006234WS02006232        0.49      0.49      2.81      0.01         0.01
  WS02006232WS02006231        0.01      0.01      2.81      0.01         0.01
  WS02006231WS02006230        0.01      0.01      0.01      5.73         0.01
  WS02006230WS02006229        3.67      4.11      3.67      5.82         3.67
  WS02006228WS02006109        2.26      3.16      2.26      5.19         2.26
  WS02006112WS02006115        0.01      0.01      0.39      0.01         0.01
  WS02006111WS02006112        0.01      0.01      4.63      0.01         0.01
  WS02006110WS02006113        0.01      0.01      2.83      0.01         0.01
  WS02006109WS02006110        0.06      0.06      3.16      0.07         0.01
  WS02004405WS02004406        0.01      0.01      0.01      0.29         0.01
  WS02004404WS02004405        0.01      0.01      0.01      5.61         0.01
  WS02003072WS02003073        0.01      0.01      0.01      5.23         0.01
  YS02001759YS02001757        3.02      3.02      4.16      0.01         0.01
  YS02001762YS02001759        2.42      2.42      3.02      0.01         0.01
  YS02001765YS02001762        0.50      0.50      2.42      0.01         0.01
  YS02001770YS02001767        0.01      0.01      0.05      0.01         0.01
  YS02001774YS02001770        0.01      0.01      1.51      0.01         0.01
  YS02001779YS02001774        0.01      0.01      1.51      0.01         0.01
  YS02001649YS02001757        2.72      2.72      4.16      0.01         0.01
  YS02001767YS02001765        0.05      0.05      0.50      0.01         0.02
  YS02001791YS02001793        0.01      0.01      0.05      0.01         0.01
  YS02163301YS02001633        0.01      0.01      0.55      0.01         0.01
  YS02163601YS02164001        0.32      0.32      2.60      0.01         0.01
  YS02164001YS02001641        0.32      0.32      0.96      0.01         0.01
  YS02001641YS02001644        0.93      0.96      1.15      0.01         0.25
  YS02001647YS02001649        0.01      0.01      2.72      0.01         0.01
  YS02001633YS02163601        0.07      0.07      2.60      0.01         0.01
  YS02001644YS02001647        0.01      0.01      1.15      0.01         0.01
  YS02001754YS02001757        0.01      0.01      4.16      0.01         0.01
  YS02001652YS02001649        0.01      0.01      2.72      0.01         0.01
  YS02001793JiankangQianchi        0.01      0.01      1.39      0.01         0.01
  YS02001757CaochengTiaoxuchi        0.01      0.01      4.16      0.01         0.01
  
  
  ***************
  Pumping Summary
  ***************
  
  ---------------------------------------------------------------------------------------------------------
                                                  Min       Avg       Max     Total     Power    % Time Off
                        Percent   Number of      Flow      Flow      Flow    Volume     Usage    Pump Curve
  Pump                 Utilized   Start-Ups       LPS       LPS       LPS  10^6 ltr     Kw-hr    Low   High
  ---------------------------------------------------------------------------------------------------------
  CC-Pump-1               64.27           5      0.00    137.82    200.00     2.517     10.04    0.0   51.6
  CC-Pump-2               62.15           4      0.00    159.56    200.00     2.753     11.10    0.0   50.0
  JK-Pump-1               70.20           3      0.00    121.77    300.00     1.805     34.30    0.0    0.0
  JK-Pump-2               87.22           7      0.00    134.32    300.00     2.497     40.07    0.0    0.0
  XR-Pump-1               93.61           5      0.00     72.73     95.00     1.910     21.99    0.0    0.0
  XR-Pump-2               93.61           5      0.00     69.44     95.00     1.824     22.11    0.0    0.0
  XR-Pump-3               80.85           8      0.00     63.10     95.00     1.397     16.54    0.0    0.0
  XR-Pump-4               93.60          11      0.00     63.98     95.00     1.710     19.37    0.0    0.0
  

  Analysis begun on:  Tue Dec 21 15:08:46 2021
  Analysis ended on:  Tue Dec 21 15:08:48 2021
  Total elapsed time: 00:00:02