
  EPA STORM WATER MANAGEMENT MODEL - VERSION 5.1 (Build 5.3.0.dev0)
  --------------------------------------------------------------

  WARNING 04: minimum elevation drop used for Conduit WS02004404WS02004405
  WARNING 03: negative offset ignored for Link YS02001904YS02001907
  
  *********************************************************
  NOTE: The summary statistics displayed in this report are
  based on results found at every computational time step,  
  not just on results from each reporting time step.
  *********************************************************
  
  ****************
  Analysis Options
  ****************
  Flow Units ............... LPS
  Process Models:
    Rainfall/Runoff ........ YES
    RDII ................... NO
    Snowmelt ............... NO
    Groundwater ............ NO
    Flow Routing ........... YES
    Ponding Allowed ........ NO
    Water Quality .......... NO
  Infiltration Method ...... HORTON
  Flow Routing Method ...... DYNWAVE
  Surcharge Method ......... EXTRAN
  Starting Date ............ 08/28/2015 08:00:00
  Ending Date .............. 08/28/2015 15:50:00
  Antecedent Dry Days ...... 8.0
  Report Time Step ......... 00:01:00
  Wet Time Step ............ 00:01:00
  Dry Time Step ............ 00:01:00
  Routing Time Step ........ 5.00 sec
  Variable Time Step ....... YES
  Maximum Trials ........... 8
  Number of Threads ........ 4
  Head Tolerance ........... 0.001500 m
  
  
  **************************        Volume         Depth
  Runoff Quantity Continuity     hectare-m            mm
  **************************     ---------       -------
  Total Precipitation ......         1.721         3.769
  Evaporation Loss .........         0.000         0.000
  Infiltration Loss ........         0.422         0.924
  Surface Runoff ...........         0.523         1.146
  Final Storage ............         0.776         1.699
  Continuity Error (%) .....        -0.016
  
  
  **************************        Volume        Volume
  Flow Routing Continuity        hectare-m      10^6 ltr
  **************************     ---------     ---------
  Dry Weather Inflow .......         0.616         6.165
  Wet Weather Inflow .......         0.523         5.230
  Groundwater Inflow .......         0.000         0.000
  RDII Inflow ..............         0.000         0.000
  External Inflow ..........         0.102         1.024
  External Outflow .........         1.338        13.376
  Flooding Loss ............         0.000         0.001
  Evaporation Loss .........         0.000         0.000
  Exfiltration Loss ........         0.000         0.000
  Initial Stored Volume ....         0.076         0.761
  Final Stored Volume ......         0.144         1.438
  Continuity Error (%) .....       -12.415
  
  
  *************************
  Highest Continuity Errors
  *************************
  Node JK-storage (-40.70%)
  Node HS02004842 (39.88%)
  Node YS02001884 (33.78%)
  Node YS02001774 (18.16%)
  Node YSB1171 (12.09%)
  
  
  ***************************
  Time-Step Critical Elements
  ***************************
  Link WS02006252WS02006251 (81.39%)
  Link 3 (9.13%)
  Link WS02006280WS02006229 (3.65%)
  Link WS02006238WS02006235 (1.45%)
  
  
  ********************************
  Highest Flow Instability Indexes
  ********************************
  Link WS02006113WS02006111 (51)
  Link WS02006111WS02006112 (20)
  Link YS02001754YS02001757 (3)
  Link YS02001751YS02001754 (3)
  Link YS02001762YS02001759 (2)
  
  
  *************************
  Routing Time Step Summary
  *************************
  Minimum Time Step           :     0.32 sec
  Average Time Step           :     1.02 sec
  Maximum Time Step           :     5.00 sec
  Percent in Steady State     :    -0.00
  Average Iterations per Step :     2.02
  Percent Not Converging      :     0.06
  
  
  ***************************
  Subcatchment Runoff Summary
  ***************************
  
  ------------------------------------------------------------------------------------------------------------------------------
                            Total      Total      Total      Total     Imperv       Perv      Total       Total     Peak  Runoff
                           Precip      Runon       Evap      Infil     Runoff     Runoff     Runoff      Runoff   Runoff   Coeff
  Subcatchment                 mm         mm         mm         mm         mm         mm         mm    10^6 ltr      LPS
  ------------------------------------------------------------------------------------------------------------------------------
  sub0                       3.77       0.00       0.00       0.26       2.24       0.00       2.24        0.00     0.57   0.594
  sub1                       3.77       0.00       0.00       0.41       2.10       0.00       2.10        0.01     3.05   0.557
  sub2                       3.77       0.00       0.00       1.39       1.47       0.00       1.47        0.01     2.70   0.390
  sub3                       3.77       0.00       0.00       1.39       1.44       0.00       1.44        0.03     5.60   0.382
  sub4                       3.77       0.00       0.00       0.41       1.98       0.00       1.98        0.04     6.31   0.525
  sub5                       3.77       0.00       0.00       0.26       2.20       0.00       2.20        0.02     5.42   0.582
  sub7                       3.77       0.00       0.00       0.34       2.17       0.00       2.17        0.01     1.90   0.577
  sub8                       3.77       0.00       0.00       0.34       2.17       0.00       2.17        0.01     3.36   0.575
  sub9                       3.77       0.00       0.00       0.34       2.16       0.00       2.16        0.01     2.49   0.574
  sub10                      3.77       0.00       0.00       0.30       2.18       0.00       2.18        0.02     5.40   0.578
  sub11                      3.77       0.00       0.00       0.30       2.19       0.00       2.19        0.03     6.31   0.582
  sub12                      3.77       0.00       0.00       0.49       2.09       0.00       2.09        0.02     5.32   0.555
  sub14                      3.77       0.00       0.00       0.34       2.16       0.00       2.16        0.02     4.87   0.574
  sub15                      3.77       0.00       0.00       1.13       1.66       0.00       1.66        0.03     6.61   0.441
  sub16                      3.77       0.00       0.00       1.24       1.61       0.00       1.61        0.02     4.68   0.426
  sub17                      3.77       0.00       0.00       1.21       1.63       0.00       1.63        0.01     3.78   0.432
  sub22                      3.77       0.00       0.00       1.62       1.36       0.00       1.36        0.09    21.57   0.361
  sub23                      3.77       0.00       0.00       1.39       1.50       0.00       1.50        0.07    18.36   0.399
  sub60                      3.77       0.00       0.00       0.45       1.24       0.00       1.24        0.37    31.38   0.328
  sub61                      3.77       0.00       0.00       0.64       1.38       0.00       1.38        0.43    40.65   0.366
  sub62                      3.77       0.00       0.00       0.30       1.46       0.00       1.46        0.45    41.24   0.388
  sub63                      3.77       0.00       0.00       1.09       1.25       0.00       1.25        0.38    38.18   0.331
  sub64                      3.77       0.00       0.00       0.57       1.18       0.00       1.18        0.36    29.72   0.313
  sub65                      3.77       0.00       0.00       0.49       1.19       0.00       1.19        0.37    30.07   0.315
  sub66                      3.77       0.00       0.00       1.09       1.04       0.00       1.04        0.32    27.58   0.276
  sub67                      3.77       0.00       0.00       0.30       1.67       0.00       1.67        0.52    53.76   0.443
  sub68                      3.77       0.00       0.00       0.53       1.48       0.00       1.48        0.46    45.15   0.394
  sub69                      3.77       0.00       0.00       0.57       1.67       0.00       1.67        0.39    44.84   0.442
  sub70                      3.77       1.70       0.00       1.86       1.86       0.00       1.86        0.43    31.90   0.340
  sub71                      3.77       0.00       0.00       0.30       1.38       0.00       1.38        0.33    28.46   0.365
  sub72                      3.77       0.00       0.00       0.26       0.89       0.00       0.89        0.18    12.55   0.236
  sub73                      3.77       1.81       0.00       1.90       1.77       0.00       1.77        0.42    27.33   0.318
  sub74                      3.77       0.00       0.00       2.83       0.51       0.00       0.51        0.20    24.94   0.135
  
  
  ******************
  Node Depth Summary
  ******************
  
  ---------------------------------------------------------------------------------
                                 Average  Maximum  Maximum  Time of Max    Reported
                                   Depth    Depth      HGL   Occurrence   Max Depth
  Node                 Type       Meters   Meters   Meters  days hr:min      Meters
  ---------------------------------------------------------------------------------
  WS02001211           JUNCTION     0.64     0.78     5.61     0  04:20        0.78
  WS02001212           JUNCTION     0.37     0.48     5.55     0  04:20        0.48
  WS02001213           JUNCTION     0.60     0.72     5.48     0  04:20        0.72
  WS02003069           JUNCTION     0.41     0.52     5.10     0  03:33        0.52
  WS02003072           JUNCTION     0.48     0.58     4.95     0  03:33        0.58
  WS02003073           JUNCTION     0.28     0.35     4.42     0  03:34        0.35
  WS02003060           JUNCTION     0.37     0.46     5.39     0  03:32        0.46
  WS02003066           JUNCTION     0.21     0.27     5.83     0  03:12        0.27
  WS02003059           JUNCTION     0.65     0.77     5.45     0  04:20        0.77
  WS02003067           JUNCTION     0.53     0.66     5.98     0  03:11        0.66
  WS02004401           JUNCTION     0.62     0.78     6.78     0  03:08        0.78
  WS02004402           JUNCTION     0.65     0.81     6.77     0  03:08        0.81
  WS02004403           JUNCTION     0.67     0.83     6.76     0  03:08        0.83
  WS02004404           JUNCTION     0.75     0.90     6.75     0  03:08        0.90
  WS02004406           JUNCTION     0.76     0.90     6.73     0  03:09        0.90
  WS02004409           JUNCTION     0.44     0.60     6.37     0  03:11        0.60
  WS02004410           JUNCTION     0.46     0.61     6.33     0  03:11        0.61
  WS02004411           JUNCTION     0.48     0.63     6.31     0  03:11        0.63
  WS02004412           JUNCTION     0.49     0.64     6.28     0  03:11        0.64
  WS02004413           JUNCTION     0.65     0.80     6.27     0  03:11        0.80
  WS02004405           JUNCTION     0.75     0.90     6.75     0  03:08        0.90
  WS02006109           JUNCTION     0.69     0.87     7.49     0  03:03        0.87
  WS02006110           JUNCTION     0.69     0.85     7.44     0  03:03        0.85
  WS02006111           JUNCTION     0.20     0.26     6.97     0  03:04        0.26
  WS02006112           JUNCTION     0.78     0.96     6.84     0  03:07        0.96
  WS02006113           JUNCTION     0.30     0.41     7.30     0  03:04        0.41
  WS02006115           JUNCTION     0.51     0.67     6.81     0  03:08        0.67
  WS02006116           JUNCTION     0.59     0.75     6.79     0  03:08        0.75
  WS02006230           JUNCTION     0.64     0.90     7.64     0  03:03        0.90
  WS02006231           JUNCTION     0.42     0.60     7.73     0  03:03        0.60
  WS02006232           JUNCTION     0.56     0.75     7.79     0  03:03        0.75
  WS02006234           JUNCTION     0.47     0.70     7.85     0  03:03        0.70
  WS02006235           JUNCTION     0.50     0.73     7.90     0  03:03        0.73
  WS02006238           JUNCTION     0.53     0.76     7.90     0  03:03        0.76
  WS02006240           JUNCTION     0.42     0.69     7.98     0  03:35        0.69
  WS02006242           JUNCTION     0.48     0.76     8.03     0  03:35        0.76
  WS02006243           JUNCTION     0.36     0.65     8.07     0  03:36        0.65
  WS02006245           JUNCTION     0.35     0.63     8.11     0  03:36        0.63
  WS02006247           JUNCTION     0.37     0.64     8.14     0  03:36        0.64
  WS02006248           JUNCTION     0.32     0.58     8.17     0  03:36        0.58
  WS02006249           JUNCTION     0.36     0.60     8.20     0  03:36        0.60
  WS02006239           JUNCTION     0.48     0.74     7.95     0  03:35        0.74
  WS02006251           JUNCTION     0.35     0.62     8.29     0  03:39        0.62
  WS02006252           JUNCTION     0.32     0.58     8.83     0  03:39        0.58
  WS02006253           JUNCTION     0.38     0.65     8.29     0  03:40        0.65
  WS02006256           JUNCTION     0.91     2.35     9.28     0  00:00        1.19
  WS02004138           JUNCTION     0.15     0.19     7.44     0  04:08        0.19
  WS02004407           JUNCTION     0.20     0.27     6.58     0  03:09        0.27
  WS02006228           JUNCTION     0.68     0.89     7.54     0  03:03        0.89
  WS02006229           JUNCTION     0.65     0.88     7.57     0  03:03        0.87
  WS02006280           JUNCTION     0.05     0.10     8.37     0  02:31        0.10
  WS02006284           JUNCTION     0.33     0.41     8.81     0  02:31        0.41
  WS02006287           JUNCTION     0.07     0.14     9.10     0  02:30        0.14
  WSF200               JUNCTION     0.19     0.27     5.51     0  03:15        0.27
  HS02004901           JUNCTION     0.10     0.17     9.99     0  02:29        0.17
  HS02004881           JUNCTION     0.00     0.01     9.04     0  02:30        0.01
  HS02004876           JUNCTION     0.03     0.08     9.11     0  02:31        0.08
  HS02004870           JUNCTION     0.01     0.02     9.31     0  02:30        0.02
  HS02004862           JUNCTION     0.01     0.03     9.41     0  02:32        0.03
  HS02004856           JUNCTION     0.07     0.09     9.51     0  02:30        0.09
  HS02004852           JUNCTION     0.00     0.01     9.53     0  02:32        0.01
  HS02004848           JUNCTION     0.00     0.01     9.61     0  02:29        0.01
  HS02004842           JUNCTION     0.32     0.34     9.61     0  02:29        0.34
  HS02004837           JUNCTION     0.02     0.03     9.61     0  02:29        0.03
  HS02004830           JUNCTION     0.03     0.05     9.52     0  02:29        0.05
  HS02004824           JUNCTION     0.02     0.03     9.43     0  02:34        0.03
  HS02004817           JUNCTION     0.41     0.47     9.32     0  02:31        0.47
  HS02004807           JUNCTION     0.10     0.15     9.32     0  02:31        0.15
  HS02004802           JUNCTION     0.14     0.19     9.32     0  02:31        0.19
  HS02004799           JUNCTION     0.09     0.17     9.38     0  02:29        0.17
  HS02004792           JUNCTION     0.02     0.06     9.58     0  02:27        0.06
  HS02004788           JUNCTION     0.01     0.04     9.94     0  02:29        0.04
  HS02004785           JUNCTION     0.03     0.08     9.99     0  02:29        0.08
  HS02004777           JUNCTION     0.12     0.19     9.99     0  02:29        0.19
  HS02004770           JUNCTION     0.09     0.16     9.99     0  02:28        0.16
  HS02004480           JUNCTION     0.05     0.13     9.37     0  02:29        0.13
  HS02004479           JUNCTION     0.09     0.17     9.37     0  02:29        0.17
  HS02004478           JUNCTION     0.04     0.08     9.31     0  02:30        0.08
  YS02001745           JUNCTION     0.06     0.08     7.59     0  03:01        0.08
  YS02001748           JUNCTION     0.06     0.09     7.16     0  03:01        0.09
  YS02001751           JUNCTION     0.17     0.27     7.15     0  03:18        0.27
  YS02001754           JUNCTION     0.42     0.55     7.16     0  03:19        0.54
  YS02001762           JUNCTION     0.62     0.75     7.15     0  03:08        0.75
  YS02001765           JUNCTION     0.57     0.70     7.15     0  03:08        0.70
  YS02001767           JUNCTION     0.54     0.66     7.15     0  03:08        0.66
  YS02001770           JUNCTION     0.53     0.65     7.15     0  03:07        0.65
  YS02001774           JUNCTION     0.60     0.73     7.15     0  03:07        0.72
  YS02001779           JUNCTION     0.35     0.47     7.15     0  03:09        0.46
  YS02001882           JUNCTION     0.21     0.30     7.02     0  03:01        0.30
  YS02001884           JUNCTION     0.30     0.40     7.02     0  03:02        0.40
  YS02001759           JUNCTION     0.65     0.78     7.15     0  03:10        0.78
  YS02001887           JUNCTION     0.38     0.48     7.02     0  03:02        0.48
  YS02001890           JUNCTION     0.41     0.51     7.01     0  03:03        0.51
  YS02001898           JUNCTION     0.18     0.27     7.00     0  03:02        0.27
  YS02001901           JUNCTION     0.30     0.39     7.00     0  03:03        0.39
  YS02001904           JUNCTION     0.28     0.37     7.00     0  03:03        0.37
  YS02001907           JUNCTION     0.61     0.71     7.00     0  03:03        0.71
  YS02001910           JUNCTION     0.40     0.49     7.00     0  03:03        0.49
  YS02001915           JUNCTION     0.20     0.28     7.00     0  03:03        0.28
  YS02001918           JUNCTION     0.06     0.07     7.13     0  03:05        0.07
  YS02001619           JUNCTION     0.14     0.22     7.15     0  03:12        0.22
  YS02001629           JUNCTION     0.48     0.60     7.15     0  03:12        0.60
  YS02001641           JUNCTION     0.58     0.71     7.15     0  03:11        0.71
  YS02001644           JUNCTION     0.59     0.72     7.15     0  03:11        0.72
  YS02001652           JUNCTION     0.44     0.55     7.15     0  03:15        0.55
  YS02001655           JUNCTION     0.20     0.30     7.15     0  03:07        0.30
  YS02001920           JUNCTION     0.14     0.16     7.16     0  03:04        0.16
  YS02001923           JUNCTION     0.04     0.05     7.31     0  03:03        0.05
  YS02001926           JUNCTION     0.10     0.12     7.57     0  03:03        0.12
  YS02001929           JUNCTION     0.04     0.06     7.75     0  03:01        0.06
  YS02001658           JUNCTION     0.06     0.09     7.23     0  03:01        0.09
  YS02001661           JUNCTION     0.12     0.16     7.56     0  03:01        0.16
  YS02001664           JUNCTION     0.05     0.08     8.00     0  03:01        0.08
  YS02001622           JUNCTION     0.16     0.25     7.15     0  03:12        0.25
  YS02001633           JUNCTION     0.57     0.70     7.15     0  03:11        0.70
  YS02001649           JUNCTION     0.63     0.76     7.15     0  03:10        0.76
  YS02001757           JUNCTION     0.75     0.89     7.15     0  03:15        0.89
  YS02001895           JUNCTION     0.18     0.26     7.01     0  03:03        0.26
  YS02001625           JUNCTION     0.43     0.55     7.15     0  03:11        0.55
  YS02163301           JUNCTION     0.51     0.63     7.15     0  03:11        0.63
  YS02163601           JUNCTION     0.62     0.75     7.15     0  03:11        0.75
  YS02164001           JUNCTION     0.56     0.69     7.15     0  03:11        0.69
  YS02001647           JUNCTION     0.42     0.54     7.15     0  03:10        0.54
  YSB1154              JUNCTION     0.23     0.31     9.37     0  02:29        0.31
  YSB6556              JUNCTION     0.12     0.20     9.37     0  02:29        0.20
  YSB1174              JUNCTION     0.18     0.26     9.37     0  02:29        0.26
  YSB1171              JUNCTION     0.38     0.47     9.37     0  02:29        0.47
  YS02006553           JUNCTION     0.61     0.71     7.00     0  03:03        0.71
  YS02006561           JUNCTION     0.10     0.15     6.81     0  03:03        0.15
  YS02006556           JUNCTION     0.59     0.69     7.00     0  03:03        0.69
  YS02006558           JUNCTION     0.63     0.73     7.00     0  03:03        0.73
  YS02001783           JUNCTION     0.17     0.25     6.39     0  03:04        0.25
  YS02001784           JUNCTION     0.20     0.29     6.35     0  03:03        0.29
  YS02001786           JUNCTION     0.17     0.24     6.27     0  03:04        0.24
  YS02001788           JUNCTION     0.12     0.18     6.15     0  03:04        0.18
  YS02001790           JUNCTION     0.15     0.21     5.86     0  03:05        0.21
  YS02001791           JUNCTION     0.10     0.14     5.61     0  03:05        0.14
  YS02001793           JUNCTION     0.06     0.09     4.93     0  03:05        0.09
  WS02004139           JUNCTION     0.59     0.72     5.63     0  04:10        0.72
  WSC                  OUTFALL      0.28     0.35     1.02     0  03:34        0.35
  3                    OUTFALL      0.03     0.23     6.23     0  00:00        0.19
  4                    OUTFALL      0.01     0.10     7.10     0  03:36        0.10
  5                    OUTFALL      0.00     0.00     5.00     0  00:00        0.00
  JK-storage           STORAGE      0.10     3.00     3.80     0  00:00        2.39
  CC-storage           STORAGE      0.00     0.01     7.01     0  04:53        0.01
  XR-storage           STORAGE      3.35     5.00     3.00     0  00:00        4.96
  
  
  *******************
  Node Inflow Summary
  *******************
  
  -------------------------------------------------------------------------------------------------
                                  Maximum  Maximum                  Lateral       Total        Flow
                                  Lateral    Total  Time of Max      Inflow      Inflow     Balance
                                   Inflow   Inflow   Occurrence      Volume      Volume       Error
  Node                 Type           LPS      LPS  days hr:min    10^6 ltr    10^6 ltr     Percent
  -------------------------------------------------------------------------------------------------
  WS02001211           JUNCTION      7.35   387.80     0  04:12       0.207        6.67       0.160
  WS02001212           JUNCTION      0.00   387.94     0  04:12           0        6.66       0.093
  WS02001213           JUNCTION      0.00   388.04     0  04:12           0        6.65       0.178
  WS02003069           JUNCTION      0.32   763.63     0  03:32     0.00902        12.5       0.104
  WS02003072           JUNCTION      0.00   762.99     0  03:33           0        12.5       0.152
  WS02003073           JUNCTION      1.82   764.30     0  03:34      0.0514        12.5       0.158
  WS02003060           JUNCTION     16.53   763.61     0  03:32       0.466        12.5       0.102
  WS02003066           JUNCTION      0.00   440.58     0  03:11           0        5.45       0.057
  WS02003059           JUNCTION      0.00   388.23     0  04:11           0        6.64       0.310
  WS02003067           JUNCTION      0.00   440.54     0  03:11           0        5.46       0.129
  WS02004401           JUNCTION      0.00   445.44     0  03:06           0        5.63       0.288
  WS02004402           JUNCTION      0.00   444.67     0  03:07           0        5.62       0.280
  WS02004403           JUNCTION      0.00   444.37     0  03:08           0         5.6       0.261
  WS02004404           JUNCTION      0.16   444.36     0  03:08     0.00457        5.59       0.204
  WS02004406           JUNCTION      0.00   444.47     0  03:08           0        5.56       0.500
  WS02004409           JUNCTION      0.00   444.19     0  03:09           0        5.53       0.182
  WS02004410           JUNCTION      0.00   442.95     0  03:09           0        5.52       0.218
  WS02004411           JUNCTION      0.00   441.94     0  03:10           0        5.51       0.234
  WS02004412           JUNCTION      0.00   441.22     0  03:10           0         5.5       0.268
  WS02004413           JUNCTION      0.00   440.76     0  03:11           0        5.48       0.418
  WS02004405           JUNCTION      0.04   444.41     0  03:08     0.00107        5.58       0.310
  WS02006109           JUNCTION      1.23   449.38     0  03:03      0.0347        5.71       0.297
  WS02006110           JUNCTION      0.00   449.36     0  03:03           0        5.69       0.255
  WS02006111           JUNCTION      0.00   462.11     0  03:04           0        5.67       0.045
  WS02006112           JUNCTION      3.78   452.28     0  03:04       0.014        5.68       0.391
  WS02006113           JUNCTION      0.00   449.39     0  03:03           0        5.68       0.102
  WS02006115           JUNCTION      0.00   448.88     0  03:04           0        5.66       0.242
  WS02006116           JUNCTION      0.00   446.60     0  03:06           0        5.65       0.245
  WS02006230           JUNCTION     10.28   392.78     0  03:40        0.29        5.13       0.172
  WS02006231           JUNCTION      0.00   382.40     0  03:40           0        4.85       0.154
  WS02006232           JUNCTION      0.00   382.39     0  03:40           0        4.86       0.235
  WS02006234           JUNCTION      0.00   383.18     0  03:31           0        4.86       0.067
  WS02006235           JUNCTION      0.00   383.39     0  03:31           0        4.89       0.143
  WS02006238           JUNCTION      0.00   315.94     0  04:11           0        3.27       0.125
  WS02006240           JUNCTION      0.00   316.60     0  04:11           0        3.27       0.150
  WS02006242           JUNCTION      0.00   317.48     0  04:11           0        3.27       0.206
  WS02006243           JUNCTION      0.00   322.04     0  03:00           0        3.25      -0.212
  WS02006245           JUNCTION      0.00   327.48     0  03:00           0        3.26       0.205
  WS02006247           JUNCTION      0.00   332.57     0  03:00           0        3.26       0.093
  WS02006248           JUNCTION      0.00   337.38     0  02:59           0        3.26      -0.018
  WS02006249           JUNCTION      0.00   404.15     0  03:36           0        3.39       0.222
  WS02006239           JUNCTION      0.00   317.38     0  04:11           0        3.27       0.163
  WS02006251           JUNCTION      0.08   407.01     0  03:39     0.00217        3.44       0.103
  WS02006252           JUNCTION      0.00   400.00     0  03:30           0        3.31       0.008
  WS02006253           JUNCTION      0.57    37.64     0  04:42     0.00181       0.122       1.082
  WS02006256           JUNCTION      0.00   600.00     0  00:00           0        2.37       0.063
  WS02004138           JUNCTION      0.00   380.00     0  04:00           0        6.47       0.026
  WS02004407           JUNCTION      0.00   444.28     0  03:09           0        5.54       0.085
  WS02006228           JUNCTION      0.00   448.16     0  03:03           0        5.69       0.203
  WS02006229           JUNCTION      0.00   448.04     0  03:03           0        5.69       0.144
  WS02006280           JUNCTION      0.00    92.20     0  02:31           0       0.573       0.013
  WS02006284           JUNCTION      0.10    92.20     0  02:30      0.0027       0.574       0.205
  WS02006287           JUNCTION      0.00    92.11     0  02:30           0       0.572       0.121
  WSF200               JUNCTION      0.00   440.57     0  03:12           0        5.45       0.049
  HS02004901           JUNCTION      4.68     4.68     0  02:19      0.0168       0.017      11.561
  HS02004881           JUNCTION      1.90    15.83     0  02:30     0.00732      0.0754       0.247
  HS02004876           JUNCTION      3.05    14.15     0  02:29       0.014      0.0686       0.759
  HS02004870           JUNCTION      3.36    11.16     0  02:29      0.0138      0.0548       0.193
  HS02004862           JUNCTION      2.90     8.01     0  02:30      0.0193      0.0411       0.405
  HS02004856           JUNCTION      2.49     5.12     0  02:29      0.0104      0.0232       6.603
  HS02004852           JUNCTION      0.00     2.78     0  02:30           0      0.0128       0.368
  HS02004848           JUNCTION      5.60     5.60     0  02:33      0.0324      0.0324       0.129
  HS02004842           JUNCTION      0.00     4.47     0  00:03           0      0.0326      66.339
  HS02004837           JUNCTION     11.75    14.45     0  02:28       0.203       0.223       0.367
  HS02004830           JUNCTION      0.15    14.59     0  02:29     0.00423       0.213       0.581
  HS02004824           JUNCTION      6.36    20.87     0  02:34      0.0427       0.254       0.212
  HS02004817           JUNCTION      0.60    21.47     0  02:34      0.0169       0.271       6.553
  HS02004807           JUNCTION      6.31    27.27     0  02:31      0.0255        0.28       1.533
  HS02004802           JUNCTION      0.00    27.33     0  02:33           0       0.275       1.498
  HS02004799           JUNCTION      4.87    55.23     0  02:27      0.0206       0.272       0.828
  HS02004792           JUNCTION     21.85    50.49     0  02:27      0.0937       0.252       0.166
  HS02004788           JUNCTION      8.28    29.65     0  02:29      0.0756        0.16       0.244
  HS02004785           JUNCTION      0.15    21.63     0  02:28     0.00423       0.086       0.557
  HS02004777           JUNCTION      0.03    21.77     0  02:25    0.000846      0.0862       6.380
  HS02004770           JUNCTION     18.36    22.42     0  02:21      0.0717      0.0869       3.699
  HS02004480           JUNCTION      0.00    65.01     0  02:29           0       0.313       0.211
  HS02004479           JUNCTION      0.00     9.94     0  02:31           0      0.0528       1.396
  HS02004478           JUNCTION      0.00    92.11     0  02:30           0       0.573       0.118
  YS02001745           JUNCTION     31.39    31.39     0  03:01       0.375       0.375       0.084
  YS02001748           JUNCTION      0.04    31.41     0  03:01     0.00127       0.376       0.042
  YS02001751           JUNCTION      0.01    56.52     0  04:41     0.00031       0.475       0.368
  YS02001754           JUNCTION      0.26   183.64     0  04:49     0.00733       0.857       1.095
  YS02001762           JUNCTION      0.00    46.15     0  02:59           0       0.499       2.727
  YS02001765           JUNCTION      0.00    68.79     0  04:37           0       0.489       2.913
  YS02001767           JUNCTION      0.54    59.79     0  04:45      0.0151       0.494       4.021
  YS02001770           JUNCTION     41.39    47.28     0  02:59       0.453       0.471       3.500
  YS02001774           JUNCTION      0.00    20.38     0  02:35           0      0.0791      22.197
  YS02001779           JUNCTION      0.01    11.92     0  04:29    0.000141      0.0469      12.076
  YS02001882           JUNCTION      0.00     1.72     0  02:23           0     0.00302      82.266
  YS02001884           JUNCTION      0.00     5.30     0  02:09           0      0.0124      51.001
  YS02001759           JUNCTION     40.69    90.38     0  03:00       0.426       0.899       1.776
  YS02001887           JUNCTION     54.21    54.21     0  03:01       0.527       0.533       1.221
  YS02001890           JUNCTION      0.00    53.72     0  03:01           0       0.515       1.393
  YS02001898           JUNCTION      0.00    53.41     0  03:02           0       0.505       0.343
  YS02001901           JUNCTION      0.00    53.44     0  03:02           0       0.505       0.958
  YS02001904           JUNCTION      0.00    53.32     0  03:03           0       0.505       0.896
  YS02001907           JUNCTION      0.00    96.70     0  03:03           0        1.08       1.979
  YS02001910           JUNCTION      0.00    43.53     0  03:01           0       0.582       1.616
  YS02001915           JUNCTION     28.48    43.64     0  03:01       0.325       0.586       0.636
  YS02001918           JUNCTION      0.00    15.42     0  03:04           0       0.261       0.288
  YS02001619           JUNCTION     27.58    27.58     0  03:01       0.319       0.319       0.160
  YS02001629           JUNCTION      0.00    30.31     0  02:55           0       0.305       1.779
  YS02001641           JUNCTION      0.00    61.70     0  03:06           0       0.641       1.989
  YS02001644           JUNCTION     29.76    88.51     0  03:05       0.359        0.98       1.571
  YS02001652           JUNCTION      0.00    57.22     0  04:46           0       0.431       2.022
  YS02001655           JUNCTION      0.15    38.31     0  03:01     0.00434       0.387       0.796
  YS02001920           JUNCTION      2.87    15.44     0  03:03      0.0809       0.263       0.613
  YS02001923           JUNCTION      0.04    12.57     0  03:03     0.00106       0.182       0.110
  YS02001926           JUNCTION      0.05    12.59     0  03:01     0.00147       0.182       0.804
  YS02001929           JUNCTION     12.55    12.55     0  03:01       0.181       0.181       0.103
  YS02001658           JUNCTION      0.00    38.16     0  03:01           0       0.377       0.052
  YS02001661           JUNCTION      0.00    38.18     0  03:01           0       0.378       0.186
  YS02001664           JUNCTION     38.18    38.18     0  03:01       0.378       0.378       0.036
  YS02001622           JUNCTION      0.00    28.24     0  02:54           0       0.319       0.744
  YS02001633           JUNCTION     30.27    64.60     0  02:55       0.371       0.663       2.783
  YS02001649           JUNCTION      0.00   133.23     0  03:15           0        1.36       1.729
  YS02001757           JUNCTION      0.00   324.30     0  04:37           0        2.82       2.492
  YS02001895           JUNCTION      0.00    53.56     0  03:01           0       0.508       0.579
  YS02001625           JUNCTION      0.00    31.53     0  02:54           0       0.317       4.690
  YS02163301           JUNCTION      0.00    32.65     0  02:55           0       0.306       4.045
  YS02163601           JUNCTION      0.11    61.98     0  03:05      0.0031       0.644       2.980
  YS02164001           JUNCTION      0.00    61.79     0  02:55           0       0.635       1.827
  YS02001647           JUNCTION      0.00    90.54     0  02:56           0       0.952       1.218
  YSB1154              JUNCTION      5.42     5.42     0  02:25      0.0249      0.0263       5.808
  YSB6556              JUNCTION      0.00     5.38     0  02:29           0      0.0274       4.754
  YSB1174              JUNCTION      5.32     5.32     0  02:18      0.0183      0.0193       7.141
  YSB1171              JUNCTION      0.00     9.99     0  02:27           0      0.0522      13.757
  YS02006553           JUNCTION      0.00    96.83     0  03:05           0        1.06       1.293
  YS02006561           JUNCTION      0.00   141.62     0  03:03           0         1.5       0.032
  YS02006556           JUNCTION      0.00    96.96     0  03:05           0        1.07       0.923
  YS02006558           JUNCTION     46.03   141.63     0  03:03       0.481        1.52       0.277
  YS02001783           JUNCTION      0.00   141.61     0  03:03           0         1.5       0.075
  YS02001784           JUNCTION      1.06   142.67     0  03:03      0.0299        1.53       0.126
  YS02001786           JUNCTION      0.06   142.73     0  03:04     0.00159        1.53       0.124
  YS02001788           JUNCTION      0.07   142.80     0  03:04       0.002        1.53       0.068
  YS02001790           JUNCTION      0.15   142.95     0  03:04     0.00437        1.53       0.089
  YS02001791           JUNCTION      0.00   142.94     0  03:05           0        1.53       0.043
  YS02001793           JUNCTION      0.00   142.94     0  03:05           0        1.53       0.017
  WS02004139           JUNCTION      0.32   380.32     0  04:08     0.00905        6.48       0.248
  WSC                  OUTFALL       0.00   763.58     0  03:34           0        12.5       0.000
  3                    OUTFALL       0.00   597.65     0  00:00           0       0.731       0.000
  4                    OUTFALL       0.00    97.86     0  03:36           0       0.118       0.000
  5                    OUTFALL       0.00     0.00     0  00:00           0           0       0.000 ltr
  JK-storage           STORAGE       0.00   142.94     0  03:05           0        1.68     -28.927
  CC-storage           STORAGE       0.00   226.38     0  03:11           0        2.38     -28.230
  XR-storage           STORAGE     251.96   251.96     0  03:01        6.26        6.86      -0.000
  
  
  **********************
  Node Surcharge Summary
  **********************
  
  Surcharging occurs when water rises above the top of the highest conduit.
  ---------------------------------------------------------------------
                                               Max. Height   Min. Depth
                                   Hours       Above Crown    Below Rim
  Node                 Type      Surcharged         Meters       Meters
  ---------------------------------------------------------------------
  WS02006109           JUNCTION        0.63          0.053        1.767
  WS02006232           JUNCTION        0.58          0.048        1.432
  WS02006235           JUNCTION        0.36          0.022        1.268
  WS02006238           JUNCTION        0.46          0.041        1.389
  WS02006242           JUNCTION        0.35          0.032        0.788
  WS02006252           JUNCTION        1.11          0.185        0.915
  WS02006256           JUNCTION        0.01          1.050        0.000
  WS02006228           JUNCTION        0.60          0.060        2.140
  
  
  *********************
  Node Flooding Summary
  *********************
  
  Flooding refers to all water that overflows a node, whether it ponds or not.
  --------------------------------------------------------------------------
                                                             Total   Maximum
                                 Maximum   Time of Max       Flood    Ponded
                        Hours       Rate    Occurrence      Volume     Depth
  Node                 Flooded       LPS   days hr:min    10^6 ltr    Meters
  --------------------------------------------------------------------------
  WS02006256              0.01    406.11      0  00:00       0.001     0.000
  
  
  **********************
  Storage Volume Summary
  **********************
  
  --------------------------------------------------------------------------------------------------
                         Average     Avg  Evap Exfil       Maximum     Max    Time of Max    Maximum
                          Volume    Pcnt  Pcnt  Pcnt        Volume    Pcnt     Occurrence    Outflow
  Storage Unit           1000 m3    Full  Loss  Loss       1000 m3    Full    days hr:min        LPS
  --------------------------------------------------------------------------------------------------
  JK-storage               0.005       2     0     0         0.151      52       0  00:00     600.00
  CC-storage               0.002       0     0     0         0.026       0       0  04:53     400.00
  XR-storage               0.402      43     0     0         0.600      65       0  00:00     380.00
  
  
  ***********************
  Outfall Loading Summary
  ***********************
  
  -----------------------------------------------------------
                         Flow       Avg       Max       Total
                         Freq      Flow      Flow      Volume
  Outfall Node           Pcnt       LPS       LPS    10^6 ltr
  -----------------------------------------------------------
  WSC                   99.99    523.52    763.58      12.527
  3                     52.53     79.51    597.65       0.731
  4                     15.84     40.55     97.86       0.118
  5                      0.00      0.00      0.00       0.000
  -----------------------------------------------------------
  System                42.09    643.58   1024.26      13.376
  
  
  ********************
  Link Flow Summary
  ********************
  
  -----------------------------------------------------------------------------
                                 Maximum  Time of Max   Maximum    Max/    Max/
                                  |Flow|   Occurrence   |Veloc|    Full    Full
  Link                 Type          LPS  days hr:min     m/sec    Flow   Depth
  -----------------------------------------------------------------------------
  WS02003066WSF200     CONDUIT    440.57     0  03:12      2.66    0.07    0.21
  WS02006287WS02006284 CONDUIT     92.10     0  02:30      1.22    0.04    0.15
  WS02006284WS02006280 CONDUIT     92.20     0  02:31      1.47    0.04    0.13
  WS02006280WS02006229 CONDUIT     92.20     0  02:31      2.36    0.02    0.10
  WS02006229WS02006228 CONDUIT    448.16     0  03:03      0.89    1.48    1.00
  WS02006256WS02006235 CONDUIT    177.52     0  00:01      2.73    1.88    1.00
  WS02006253WS02006251 CONDUIT     41.00     0  04:43      0.35    0.12    0.90
  WS02006252WS02006251 CONDUIT    400.14     0  03:39      3.18    1.47    1.00
  WS02006251WS02006249 CONDUIT    404.15     0  03:36      1.16    1.17    0.87
  WS02006249WS02006248 CONDUIT    337.38     0  02:59      1.11    1.85    0.83
  WS02006248WS02006247 CONDUIT    332.57     0  03:00      1.07    0.72    0.86
  WS02006247WS02006245 CONDUIT    327.48     0  03:00      1.02    2.60    0.90
  WS02006245WS02006243 CONDUIT    322.04     0  03:00      1.04    0.95    0.91
  WS02006243WS02006242 CONDUIT    317.48     0  04:11      0.93    0.68    0.97
  WS02006242WS02006240 CONDUIT    316.60     0  04:11      0.90    1.26    0.99
  WS02006240WS02006239 CONDUIT    317.38     0  04:11      0.95    1.00    0.99
  WS02006239WS02006238 CONDUIT    315.94     0  04:11      0.89    1.01    1.00
  WS02006238WS02006235 CONDUIT    315.88     0  04:12      1.32    0.71    1.00
  WS02006235WS02006234 CONDUIT    383.18     0  03:31      1.00    4.04    0.98
  WS02006234WS02006232 CONDUIT    382.39     0  03:40      1.17    0.77    1.00
  WS02006232WS02006231 CONDUIT    382.40     0  03:40      1.04    0.80    0.92
  WS02006231WS02006230 CONDUIT    382.50     0  03:40      1.32    5.80    0.80
  WS02006230WS02006229 CONDUIT    392.96     0  03:41      1.02    8.75    1.00
  WS02006228WS02006109 CONDUIT    448.15     0  03:03      0.89    1.96    1.00
  WS02006116WS02004401 CONDUIT    445.44     0  03:06      0.69    0.61    0.77
  WS02006115WS02006116 CONDUIT    446.60     0  03:06      0.79    0.57    0.68
  WS02006113WS02006111 CONDUIT    462.11     0  03:04      2.31    0.55    0.42
  WS02006112WS02006115 CONDUIT    448.88     0  03:04      0.67    0.26    0.81
  WS02006111WS02006112 CONDUIT    450.78     0  03:04      1.29    0.21    0.66
  WS02006110WS02006113 CONDUIT    449.39     0  03:03      1.10    0.41    0.76
  WS02006109WS02006110 CONDUIT    449.36     0  03:03      0.90    0.86    0.96
  WS02004411WS02004412 CONDUIT    441.22     0  03:10      0.84    0.63    0.63
  WS02004401WS02004402 CONDUIT    444.67     0  03:07      0.67    0.53    0.79
  WS02004413WS02003067 CONDUIT    440.54     0  03:11      1.00    0.19    0.55
  WS02004412WS02004413 CONDUIT    440.76     0  03:11      0.73    0.30    0.72
  WS02004410WS02004411 CONDUIT    441.94     0  03:10      0.86    0.60    0.62
  WS02004409WS02004410 CONDUIT    442.95     0  03:09      0.90    0.57    0.61
  WS02004407WS02004409 CONDUIT    444.19     0  03:09      1.38    0.16    0.43
  WS02004406WS02004407 CONDUIT    444.28     0  03:09      0.93    0.20    0.59
  WS02004405WS02004406 CONDUIT    444.47     0  03:08      0.60    0.88    0.90
  WS02004404WS02004405 CONDUIT    444.38     0  03:08      0.60    4.35    0.90
  WS02004403WS02004404 CONDUIT    444.20     0  03:08      0.62    0.32    0.86
  WS02004402WS02004403 CONDUIT    444.37     0  03:08      0.65    0.64    0.82
  WS02004139WS02001211 CONDUIT    380.45     0  04:12      0.80    0.48    0.58
  WS02004138WS02004139 CONDUIT    380.00     0  04:08      3.34    0.08    0.43
  WS02003067WS02003066 CONDUIT    440.58     0  03:11      1.08    0.14    0.39
  WS02001213WS02003059 CONDUIT    388.23     0  04:11      0.80    0.64    0.73
  WS02001212WS02001213 CONDUIT    388.04     0  04:12      1.31    0.60    0.44
  WS02001211WS02001212 CONDUIT    387.94     0  04:12      0.77    0.30    0.63
  WS02003072WS02003073 CONDUIT    762.48     0  03:34      1.60    1.65    0.44
  WS02003069WS02003072 CONDUIT    762.99     0  03:33      1.52    0.37    0.46
  WS02003060WS02003069 CONDUIT    763.31     0  03:32      1.77    0.30    0.41
  WS02003059WS02003060 CONDUIT    388.46     0  04:11      0.93    0.25    0.61
  HS02004901HS02004770 CONDUIT      4.25     0  02:26      0.03    0.02    0.24
  HS02004876HS02004881 CONDUIT     14.11     0  02:31      0.32    0.15    0.06
  HS02004870HS02004876 CONDUIT     11.15     0  02:30      0.23    0.01    0.07
  HS02004842HS02004848 CONDUIT      2.95     0  02:43      0.02    0.00    0.26
  HS02004837HS02004842 CONDUIT      4.47     0  00:03      0.41    0.00    0.27
  HS02004830HS02004837 CONDUIT     14.44     0  02:29      0.36    0.01    0.06
  HS02004824HS02004830 CONDUIT     14.59     0  02:30      0.40    0.02    0.05
  HS02004817HS02004824 CONDUIT     20.87     0  02:34      0.17    0.01    0.36
  HS02004770HS02004777 CONDUIT     21.74     0  02:25      0.12    0.04    0.25
  HS02004799HS02004480 CONDUIT     55.15     0  02:28      0.38    0.07    0.21
  HS02004792HS02004799 CONDUIT     50.46     0  02:28      0.44    0.03    0.16
  HS02004788HS02004792 CONDUIT     29.63     0  02:29      0.61    0.02    0.07
  HS02004785HS02004788 CONDUIT     21.54     0  02:29      0.34    0.16    0.09
  HS02004777HS02004785 CONDUIT     21.48     0  02:28      0.16    0.03    0.20
  HS02004480HS02004478 CONDUIT     64.98     0  02:29      0.67    0.27    0.14
  HS02004479HS02004480 CONDUIT     10.01     0  02:32      0.16    0.01    0.21
  HS02004862HS02004870 CONDUIT      7.99     0  02:31      0.32    0.01    0.04
  HS02004848HS02004852 CONDUIT      2.78     0  02:30      0.20    0.00    0.02
  HS02004856HS02004862 CONDUIT      5.11     0  02:30      0.23    0.01    0.03
  HS02004852HS02004856 CONDUIT      2.76     0  02:32      0.05    0.00    0.07
  HS02004802HS02004478 CONDUIT     27.42     0  02:34      0.20    0.02    0.19
  HS02004478WS02006287 CONDUIT     92.11     0  02:30      0.91    0.03    0.11
  HS02004817HS02004807 CONDUIT     21.63     0  02:36      0.07    0.01    0.44
  HS02004807HS02004802 CONDUIT     27.33     0  02:33      0.19    0.05    0.23
  YS02001759YS02001757 CONDUIT     88.65     0  03:00      0.13    0.06    0.84
  YS02001762YS02001759 CONDUIT     68.62     0  04:29      0.17    0.08    0.77
  YS02001765YS02001762 CONDUIT     46.15     0  02:59      0.22    0.04    0.73
  YS02001770YS02001767 CONDUIT     48.79     0  03:10      0.28    0.19    0.66
  YS02001774YS02001770 CONDUIT     20.38     0  02:35      0.12    0.01    0.68
  YS02001779YS02001774 CONDUIT     12.01     0  04:37      0.05    0.01    0.59
  YS02001649YS02001757 CONDUIT    132.66     0  03:15      0.19    0.08    0.82
  YS02001767YS02001765 CONDUIT     68.79     0  04:37      0.26    0.09    0.68
  YS02006561YS02001783 CONDUIT    141.61     0  03:03      1.45    0.07    0.25
  YS02001783YS02001784 CONDUIT    141.61     0  03:03      0.95    0.20    0.34
  YS02001784YS02001785 CONDUIT    142.67     0  03:04      0.98    0.33    0.33
  YS02001788YS02001790 CONDUIT    142.79     0  03:04      1.51    0.11    0.24
  YS02001790YS02001791 CONDUIT    142.94     0  03:05      1.73    0.16    0.22
  YS02001791YS02001793 CONDUIT    142.94     0  03:05      3.35    0.06    0.15
  YS02001910YS02001907 CONDUIT     43.57     0  03:05      0.49    0.02    0.60
  YS02001786YS02001788 CONDUIT    142.73     0  03:04      1.36    0.28    0.26
  YS02001915YS02001910 CONDUIT     43.53     0  03:01      0.44    0.02    0.39
  YS02001918YS02001915 CONDUIT     15.41     0  03:05      0.44    0.01    0.17
  YS02001923YS02001920 CONDUIT     12.57     0  03:03      0.29    0.01    0.10
  YS02001926YS02001923 CONDUIT     12.53     0  03:03      0.35    0.02    0.09
  YS02001929YS02001926 CONDUIT     12.54     0  03:01      0.36    0.01    0.09
  YS02001920YS02001918 CONDUIT     15.42     0  03:04      0.33    0.01    0.11
  YS02001629YS02163301 CONDUIT     32.65     0  02:55      0.08    0.04    0.62
  YS02001619YS02001622 CONDUIT     28.24     0  02:54      0.50    0.04    0.24
  YS02001622YS02001625 CONDUIT     31.53     0  02:54      0.16    0.02    0.40
  YS02001625YS02001629 CONDUIT     30.31     0  02:55      0.16    0.01    0.38
  YS02163301YS02001633 CONDUIT     35.09     0  02:55      0.07    0.03    0.66
  YS02163601YS02164001 CONDUIT     61.79     0  02:55      0.11    0.05    0.72
  YS02164001YS02001641 CONDUIT     61.70     0  03:06      0.11    0.08    0.70
  YS02001641YS02001644 CONDUIT     59.55     0  03:05      0.11    0.19    0.71
  YS02001647YS02001649 CONDUIT     90.61     0  02:56      0.18    0.05    0.65
  YS02006553YS02006556 CONDUIT     96.96     0  03:05      0.18    0.08    0.68
  YS02006556YS02006558 CONDUIT     97.03     0  03:05      0.16    0.08    0.71
  YSB6556YSB1171       CONDUIT      5.43     0  02:33      0.03    0.01    0.48
  YS02001907YS02006553 CONDUIT     96.83     0  03:05      0.14    0.11    0.78
  YS02006558YS02006561 CONDUIT    141.62     0  03:03      1.86    0.31    0.31
  YS02001633YS02163601 CONDUIT     61.87     0  03:05      0.11    0.06    0.71
  YS02001644YS02001647 CONDUIT     90.54     0  02:56      0.18    0.05    0.63
  YS02001745YS02001748 CONDUIT     31.36     0  03:01      1.12    0.01    0.08
  YS02001748YS02001751 CONDUIT     31.40     0  03:01      0.89    0.02    0.18
  YS02001751YS02001754 CONDUIT     76.63     0  04:33      0.80    0.04    0.38
  YS02001754YS02001757 CONDUIT    147.23     0  04:49      0.33    0.06    0.72
  YS02001882YS02001884 CONDUIT      1.72     0  02:23      0.06    0.00    0.32
  YS02001884YS02001887 CONDUIT      5.30     0  02:09      0.04    0.01    0.41
  YS02001890YS02001895 CONDUIT     53.56     0  03:01      0.19    0.02    0.39
  YS02001895YS02001898 CONDUIT     53.41     0  03:02      0.39    0.09    0.25
  YS02001898YS02001901 CONDUIT     53.44     0  03:02      0.24    0.03    0.33
  YS02001901YS02001904 CONDUIT     53.32     0  03:03      0.19    0.08    0.38
  YS02001904YS02001907 CONDUIT     53.41     0  03:03      0.12    0.02    0.54
  YS02001887YS02001890 CONDUIT     53.72     0  03:01      0.15    0.09    0.47
  YS02001652YS02001649 CONDUIT     54.29     0  04:38      0.24    0.03    0.66
  YS02001655YS02001652 CONDUIT     46.62     0  03:07      0.86    0.02    0.41
  YS02001658YS02001655 CONDUIT     38.15     0  03:01      1.01    0.02    0.19
  YS02001661YS02001658 CONDUIT     38.16     0  03:01      1.14    0.01    0.09
  YS02001664YS02001661 CONDUIT     38.18     0  03:01      0.75    0.01    0.12
  YSB1154YSB6556       CONDUIT      5.38     0  02:29      0.19    0.01    0.37
  YSB1174YSB1171       CONDUIT      4.94     0  02:21      0.03    0.01    0.48
  YSB1171HS02004479    CONDUIT      9.94     0  02:31      0.54    0.01    0.36
  HS02004881HS02006253 CONDUIT     15.83     0  02:30      1.17    0.00    0.22
  YS02001793JiankangQianchi CONDUIT    142.94     0  03:05     10.38    0.01    0.53
  YS02001757CaochengTiaoxuchi CONDUIT    226.38     0  03:11      0.67    0.10    0.45
  WSF200WS02003060     CONDUIT    439.88     0  03:12      1.83    0.10    0.29
  1                    CONDUIT    763.58     0  03:34      3.09    0.27    0.35
  2                    CONDUIT     97.86     0  03:36      4.82    0.23    0.33
  3                    CONDUIT    597.65     0  00:00     10.05    0.95    0.86
  4                    CONDUIT      0.00     0  00:00      0.00    0.00    0.00
  CC-Pump-1            PUMP       200.00     0  02:56              1.00
  CC-Pump-2            PUMP       200.00     0  03:00              1.00
  JK-Pump-1            PUMP       300.00     0  00:00              1.00
  JK-Pump-2            PUMP       300.00     0  00:00              1.00
  XR-Pump-1            PUMP        95.00     0  00:30              1.00
  XR-Pump-2            PUMP        95.00     0  00:00              1.00
  XR-Pump-3            PUMP        95.00     0  00:00              1.00
  XR-Pump-4            PUMP        95.00     0  00:00              1.00
  
  
  ***************************
  Flow Classification Summary
  ***************************
  
  -------------------------------------------------------------------------------------
                      Adjusted    ---------- Fraction of Time in Flow Class ---------- 
                       /Actual         Up    Down  Sub   Sup   Up    Down  Norm  Inlet 
  Conduit               Length    Dry  Dry   Dry   Crit  Crit  Crit  Crit  Ltd   Ctrl  
  -------------------------------------------------------------------------------------
  WS02003066WSF200        1.00   0.07  0.01  0.00  0.00  0.92  0.00  0.00  0.70  0.00
  WS02006287WS02006284    1.00   0.04  0.02  0.00  0.75  0.19  0.00  0.00  0.81  0.00
  WS02006284WS02006280    1.00   0.05  0.00  0.00  0.00  0.00  0.00  0.95  0.00  0.00
  WS02006280WS02006229    1.00   0.05  0.00  0.00  0.00  0.00  0.00  0.95  0.00  0.00
  WS02006229WS02006228    1.00   0.00  0.00  0.00  0.98  0.00  0.00  0.02  0.00  0.00
  WS02006256WS02006235    1.00   0.00  0.00  0.00  1.00  0.00  0.00  0.00  0.00  0.00
  WS02006253WS02006251    1.00   0.03  0.01  0.00  0.96  0.00  0.00  0.00  0.00  0.00
  WS02006252WS02006251    1.00   0.10  0.00  0.00  0.00  0.00  0.90  0.00  0.00  0.00
  WS02006251WS02006249    1.00   0.00  0.00  0.00  1.00  0.00  0.00  0.00  0.34  0.00
  WS02006249WS02006248    1.00   0.00  0.02  0.00  0.88  0.00  0.10  0.00  0.00  0.00
  WS02006248WS02006247    1.00   0.02  0.00  0.00  0.97  0.00  0.00  0.01  0.23  0.00
  WS02006247WS02006245    1.00   0.02  0.00  0.00  0.96  0.00  0.00  0.02  0.00  0.00
  WS02006245WS02006243    1.00   0.02  0.00  0.00  0.92  0.00  0.00  0.06  0.02  0.00
  WS02006243WS02006242    1.00   0.01  0.01  0.00  0.98  0.00  0.00  0.00  0.33  0.00
  WS02006242WS02006240    1.00   0.01  0.00  0.00  0.99  0.00  0.00  0.00  0.00  0.00
  WS02006240WS02006239    1.00   0.00  0.00  0.00  0.94  0.00  0.00  0.06  0.02  0.00
  WS02006239WS02006238    1.00   0.00  0.00  0.00  1.00  0.00  0.00  0.00  0.01  0.00
  WS02006238WS02006235    1.00   0.00  0.00  0.00  1.00  0.00  0.00  0.00  0.00  0.00
  WS02006235WS02006234    1.00   0.00  0.00  0.00  0.93  0.00  0.07  0.00  0.00  0.00
  WS02006234WS02006232    1.00   0.00  0.00  0.00  1.00  0.00  0.00  0.00  0.08  0.00
  WS02006232WS02006231    1.00   0.00  0.00  0.00  0.99  0.00  0.01  0.00  0.00  0.00
  WS02006231WS02006230    1.00   0.01  0.00  0.00  0.33  0.00  0.67  0.00  0.00  0.00
  WS02006230WS02006229    1.00   0.00  0.00  0.00  0.98  0.00  0.00  0.02  0.01  0.00
  WS02006228WS02006109    1.00   0.00  0.00  0.00  0.99  0.00  0.00  0.00  0.00  0.00
  WS02006116WS02004401    1.00   0.02  0.00  0.00  0.98  0.00  0.00  0.00  0.00  0.00
  WS02006115WS02006116    1.00   0.02  0.00  0.00  0.96  0.00  0.00  0.01  0.01  0.00
  WS02006113WS02006111    1.00   0.02  0.00  0.00  0.00  0.98  0.00  0.00  0.14  0.00
  WS02006112WS02006115    1.00   0.02  0.00  0.00  0.97  0.00  0.00  0.00  0.00  0.00
  WS02006111WS02006112    1.00   0.02  0.00  0.00  0.98  0.00  0.00  0.00  0.98  0.00
  WS02006110WS02006113    1.00   0.02  0.00  0.00  0.98  0.00  0.00  0.00  0.00  0.00
  WS02006109WS02006110    1.00   0.00  0.02  0.00  0.98  0.00  0.00  0.00  0.00  0.00
  WS02004411WS02004412    1.00   0.06  0.00  0.00  0.94  0.00  0.00  0.00  0.00  0.00
  WS02004401WS02004402    1.00   0.02  0.00  0.00  0.98  0.00  0.00  0.00  0.00  0.00
  WS02004413WS02003067    1.00   0.06  0.01  0.00  0.00  0.00  0.93  0.00  0.00  0.00
  WS02004412WS02004413    1.00   0.06  0.00  0.00  0.94  0.00  0.00  0.00  0.03  0.00
  WS02004410WS02004411    1.00   0.06  0.00  0.00  0.94  0.00  0.00  0.00  0.01  0.00
  WS02004409WS02004410    1.00   0.06  0.00  0.00  0.94  0.00  0.00  0.00  0.01  0.00
  WS02004407WS02004409    1.00   0.06  0.00  0.00  0.94  0.00  0.00  0.00  0.79  0.00
  WS02004406WS02004407    1.00   0.00  0.06  0.00  0.94  0.00  0.00  0.00  0.00  0.00
  WS02004405WS02004406    1.00   0.00  0.00  0.00  1.00  0.00  0.00  0.00  0.02  0.00
  WS02004404WS02004405    1.00   0.00  0.00  0.00  1.00  0.00  0.00  0.00  0.00  0.00
  WS02004403WS02004404    1.00   0.00  0.03  0.00  0.97  0.00  0.00  0.00  0.02  0.00
  WS02004402WS02004403    1.00   0.03  0.00  0.00  0.97  0.00  0.00  0.00  0.00  0.00
  WS02004139WS02001211    1.00   0.00  0.00  0.00  0.99  0.00  0.01  0.00  0.00  0.00
  WS02004138WS02004139    1.00   0.00  0.00  0.00  0.99  0.01  0.00  0.00  1.00  0.00
  WS02003067WS02003066    1.00   0.07  0.00  0.00  0.92  0.00  0.00  0.00  0.00  0.00
  WS02001213WS02003059    1.00   0.00  0.00  0.00  0.99  0.00  0.00  0.00  0.00  0.00
  WS02001212WS02001213    1.00   0.01  0.00  0.00  0.74  0.00  0.26  0.00  0.00  0.00
  WS02001211WS02001212    1.00   0.00  0.01  0.00  0.99  0.00  0.00  0.00  0.00  0.00
  WS02003072WS02003073    1.00   0.00  0.00  0.00  0.00  0.00  0.00  1.00  0.00  0.00
  WS02003069WS02003072    1.00   0.00  0.00  0.00  0.99  0.01  0.00  0.00  0.33  0.00
  WS02003060WS02003069    1.00   0.00  0.00  0.00  0.99  0.01  0.00  0.00  0.16  0.00
  WS02003059WS02003060    1.00   0.00  0.00  0.00  0.99  0.01  0.00  0.00  0.01  0.00
  HS02004901HS02004770    1.00   0.04  0.00  0.00  0.95  0.00  0.00  0.00  0.03  0.00
  HS02004876HS02004881    1.00   0.02  0.00  0.00  0.98  0.00  0.00  0.00  0.00  0.00
  HS02004870HS02004876    1.00   0.01  0.00  0.00  0.99  0.00  0.00  0.00  0.95  0.00
  HS02004842HS02004848    1.00   0.00  0.05  0.00  0.95  0.00  0.00  0.00  0.71  0.00
  HS02004837HS02004842    1.00   0.00  0.00  0.00  0.99  0.01  0.00  0.00  0.11  0.00
  HS02004830HS02004837    1.00   0.00  0.00  0.00  1.00  0.00  0.00  0.00  0.99  0.00
  HS02004824HS02004830    1.00   0.00  0.00  0.00  1.00  0.00  0.00  0.00  0.00  0.00
  HS02004817HS02004824    1.00   0.00  0.00  0.00  1.00  0.00  0.00  0.00  1.00  0.00
  HS02004770HS02004777    1.00   0.00  0.04  0.00  0.95  0.00  0.00  0.00  0.08  0.00
  HS02004799HS02004480    1.00   0.01  0.02  0.00  0.94  0.00  0.04  0.00  0.00  0.00
  HS02004792HS02004799    1.00   0.00  0.00  0.00  0.98  0.02  0.00  0.00  0.98  0.00
  HS02004788HS02004792    1.00   0.00  0.00  0.00  0.98  0.02  0.00  0.00  0.98  0.00
  HS02004785HS02004788    1.00   0.00  0.00  0.00  1.00  0.00  0.00  0.00  0.00  0.00
  HS02004777HS02004785    1.00   0.00  0.00  0.00  1.00  0.00  0.00  0.00  0.22  0.00
  HS02004480HS02004478    1.00   0.05  0.00  0.00  0.77  0.00  0.00  0.18  0.00  0.00
  HS02004479HS02004480    1.00   0.03  0.00  0.00  0.97  0.00  0.00  0.00  0.16  0.00
  HS02004862HS02004870    1.00   0.00  0.00  0.00  1.00  0.00  0.00  0.00  0.05  0.00
  HS02004848HS02004852    1.00   0.05  0.00  0.00  0.95  0.00  0.00  0.00  0.68  0.00
  HS02004856HS02004862    1.00   0.00  0.08  0.00  0.92  0.00  0.00  0.00  0.72  0.00
  HS02004852HS02004856    1.00   0.05  0.01  0.00  0.95  0.00  0.00  0.00  0.82  0.00
  HS02004802HS02004478    1.00   0.05  0.01  0.00  0.95  0.00  0.00  0.00  0.00  0.00
  HS02004478WS02006287    1.00   0.06  0.00  0.00  0.94  0.00  0.00  0.00  0.81  0.00
  HS02004817HS02004807    1.00   0.00  0.05  0.00  0.95  0.00  0.00  0.00  0.00  0.00
  HS02004807HS02004802    1.00   0.05  0.00  0.00  0.95  0.00  0.00  0.00  0.01  0.00
  YS02001759YS02001757    1.00   0.00  0.00  0.00  1.00  0.00  0.00  0.00  0.17  0.00
  YS02001762YS02001759    1.00   0.00  0.00  0.00  1.00  0.00  0.00  0.00  0.05  0.00
  YS02001765YS02001762    1.00   0.00  0.00  0.00  1.00  0.00  0.00  0.00  0.24  0.00
  YS02001770YS02001767    1.00   0.00  0.00  0.00  1.00  0.00  0.00  0.00  0.00  0.00
  YS02001774YS02001770    1.00   0.00  0.05  0.00  0.94  0.00  0.00  0.00  0.07  0.00
  YS02001779YS02001774    1.00   0.00  0.00  0.00  1.00  0.00  0.00  0.00  0.29  0.00
  YS02001649YS02001757    1.00   0.00  0.00  0.00  1.00  0.00  0.00  0.00  0.20  0.00
  YS02001767YS02001765    1.00   0.00  0.00  0.00  1.00  0.00  0.00  0.00  0.01  0.00
  YS02006561YS02001783    1.00   0.08  0.00  0.00  0.00  0.92  0.00  0.00  0.72  0.00
  YS02001783YS02001784    1.00   0.00  0.08  0.00  0.92  0.00  0.00  0.00  0.17  0.00
  YS02001784YS02001785    1.00   0.00  0.00  0.00  1.00  0.00  0.00  0.00  0.27  0.00
  YS02001788YS02001790    1.00   0.00  0.00  0.00  0.08  0.92  0.00  0.00  0.99  0.00
  YS02001790YS02001791    1.00   0.00  0.00  0.00  0.02  0.98  0.00  0.00  0.29  0.00
  YS02001791YS02001793    1.00   0.00  0.00  0.00  0.00  1.00  0.00  0.00  0.00  0.00
  YS02001910YS02001907    1.00   0.00  0.00  0.00  0.98  0.00  0.00  0.02  0.13  0.00
  YS02001786YS02001788    1.00   0.00  0.00  0.00  0.15  0.85  0.00  0.00  0.00  0.00
  YS02001915YS02001910    1.00   0.00  0.00  0.00  1.00  0.00  0.00  0.00  0.26  0.00
  YS02001918YS02001915    1.00   0.00  0.01  0.00  0.98  0.01  0.00  0.00  0.80  0.00
  YS02001923YS02001920    1.00   0.00  0.00  0.00  1.00  0.00  0.00  0.00  1.00  0.00
  YS02001926YS02001923    1.00   0.00  0.03  0.00  0.00  0.00  0.97  0.00  0.00  0.00
  YS02001929YS02001926    1.00   0.00  0.05  0.00  0.95  0.00  0.00  0.00  0.86  0.00
  YS02001920YS02001918    1.00   0.00  0.01  0.00  0.99  0.00  0.00  0.00  0.00  0.00
  YS02001629YS02163301    1.00   0.07  0.00  0.00  0.93  0.00  0.00  0.00  0.00  0.00
  YS02001619YS02001622    1.00   0.04  0.00  0.00  0.96  0.00  0.00  0.00  0.00  0.00
  YS02001622YS02001625    1.00   0.05  0.00  0.00  0.95  0.00  0.00  0.00  0.15  0.00
  YS02001625YS02001629    1.00   0.05  0.03  0.00  0.90  0.00  0.02  0.00  0.00  0.00
  YS02163301YS02001633    1.00   0.00  0.07  0.00  0.93  0.00  0.00  0.00  0.00  0.00
  YS02163601YS02164001    1.00   0.00  0.03  0.00  0.97  0.00  0.00  0.00  0.00  0.00
  YS02164001YS02001641    1.00   0.01  0.02  0.00  0.97  0.00  0.00  0.00  0.07  0.00
  YS02001641YS02001644    1.00   0.00  0.01  0.00  0.99  0.00  0.00  0.00  0.00  0.00
  YS02001647YS02001649    1.00   0.00  0.07  0.00  0.92  0.00  0.00  0.00  0.01  0.00
  YS02006553YS02006556    1.00   0.02  0.00  0.00  0.98  0.00  0.00  0.00  0.03  0.00
  YS02006556YS02006558    1.00   0.00  0.01  0.00  0.99  0.00  0.00  0.00  0.00  0.00
  YSB6556YSB1171          1.00   0.03  0.02  0.00  0.96  0.00  0.00  0.00  0.00  0.00
  YS02001907YS02006553    1.00   0.00  0.02  0.00  0.98  0.00  0.00  0.00  0.00  0.00
  YS02006558YS02006561    1.00   0.08  0.00  0.00  0.00  0.92  0.00  0.00  0.70  0.00
  YS02001633YS02163601    1.00   0.00  0.01  0.00  0.99  0.00  0.00  0.00  0.20  0.00
  YS02001644YS02001647    1.00   0.00  0.08  0.00  0.92  0.00  0.00  0.00  0.00  0.00
  YS02001745YS02001748    1.00   0.00  0.00  0.00  0.00  0.00  0.00  1.00  0.00  0.00
  YS02001748YS02001751    1.00   0.00  0.00  0.00  0.97  0.03  0.00  0.00  0.91  0.00
  YS02001751YS02001754    1.00   0.00  0.00  0.00  0.92  0.00  0.00  0.08  0.03  0.00
  YS02001754YS02001757    1.00   0.00  0.00  0.00  0.99  0.01  0.00  0.00  0.28  0.00
  YS02001882YS02001884    1.00   0.06  0.00  0.00  0.93  0.00  0.00  0.00  0.00  0.00
  YS02001884YS02001887    1.00   0.03  0.01  0.00  0.96  0.00  0.00  0.00  0.00  0.00
  YS02001890YS02001895    1.00   0.00  0.07  0.00  0.93  0.00  0.00  0.00  0.00  0.00
  YS02001895YS02001898    1.00   0.07  0.00  0.00  0.92  0.00  0.01  0.00  0.00  0.00
  YS02001898YS02001901    1.00   0.07  0.01  0.00  0.93  0.00  0.00  0.00  0.02  0.00
  YS02001901YS02001904    1.00   0.07  0.00  0.00  0.93  0.00  0.00  0.00  0.00  0.00
  YS02001904YS02001907    1.00   0.00  0.06  0.00  0.93  0.00  0.00  0.00  0.00  0.00
  YS02001887YS02001890    1.00   0.00  0.00  0.00  0.98  0.00  0.02  0.00  0.00  0.00
  YS02001652YS02001649    1.00   0.00  0.00  0.00  1.00  0.00  0.00  0.00  0.28  0.00
  YS02001655YS02001652    1.00   0.00  0.00  0.00  0.92  0.00  0.00  0.08  0.03  0.00
  YS02001658YS02001655    1.00   0.00  0.06  0.00  0.91  0.03  0.00  0.00  0.79  0.00
  YS02001661YS02001658    1.00   0.06  0.00  0.00  0.00  0.94  0.00  0.00  0.72  0.00
  YS02001664YS02001661    1.00   0.04  0.00  0.00  0.96  0.00  0.00  0.00  0.86  0.00
  YSB1154YSB6556          1.00   0.04  0.00  0.00  0.96  0.00  0.00  0.00  0.02  0.00
  YSB1174YSB1171          1.00   0.03  0.01  0.00  0.96  0.00  0.00  0.00  0.00  0.00
  YSB1171HS02004479       1.00   0.03  0.00  0.00  0.97  0.00  0.00  0.00  0.13  0.00
  HS02004881HS02006253    1.00   0.03  0.00  0.00  0.68  0.01  0.00  0.28  0.45  0.00
  YS02001793JiankangQianchi    1.00   0.00  0.00  0.00  0.10  0.90  0.00  0.00  0.13  0.00
  YS02001757CaochengTiaoxuchi    1.00   0.00  0.10  0.00  0.90  0.00  0.00  0.00  0.00  0.00
  WSF200WS02003060        1.00   0.00  0.07  0.00  0.75  0.19  0.00  0.00  0.60  0.00
  1                       1.00   0.00  0.00  0.00  0.00  1.00  0.00  0.00  0.44  0.00
  2                       1.00   0.84  0.00  0.00  0.00  0.16  0.00  0.00  0.04  0.00
  3                       1.00   0.47  0.00  0.00  0.00  0.53  0.00  0.00  0.08  0.00
  4                       1.00   1.00  0.00  0.00  0.00  0.00  0.00  0.00  0.00  0.00
  
  
  *************************
  Conduit Surcharge Summary
  *************************
  
  ----------------------------------------------------------------------------
                                                           Hours        Hours 
                         --------- Hours Full --------   Above Full   Capacity
  Conduit                Both Ends  Upstream  Dnstream   Normal Flow   Limited
  ----------------------------------------------------------------------------
  WS02006229WS02006228        0.60      0.65      0.60      2.26         0.60
  WS02006256WS02006235        5.26      5.26      7.31      1.83         0.01
  WS02006252WS02006251        0.35      0.35      1.11      0.84         0.01
  WS02006251WS02006249        0.01      0.01      0.01      0.35         0.01
  WS02006249WS02006248        0.01      0.01      0.01      2.40         0.01
  WS02006247WS02006245        0.01      0.01      0.01      3.62         0.01
  WS02006243WS02006242        0.01      0.01      0.35      0.01         0.01
  WS02006242WS02006240        0.01      0.01      0.47      1.01         0.01
  WS02006239WS02006238        0.43      0.43      0.46      0.07         0.01
  WS02006238WS02006235        0.42      0.42      0.55      0.01         0.01
  WS02006235WS02006234        0.01      0.01      0.36      5.25         0.01
  WS02006234WS02006232        0.01      0.01      0.58      0.01         0.01
  WS02006232WS02006231        0.01      0.01      0.58      0.01         0.01
  WS02006231WS02006230        0.01      0.01      0.01      5.36         0.01
  WS02006230WS02006229        1.09      1.82      1.09      5.48         1.09
  WS02006228WS02006109        0.63      0.78      0.63      3.76         0.63
  WS02006111WS02006112        0.01      0.01      2.75      0.01         0.01
  WS02006110WS02006113        0.01      0.01      0.70      0.01         0.01
  WS02006109WS02006110        0.01      0.01      0.78      0.01         0.01
  WS02004404WS02004405        0.01      0.01      0.01      5.34         0.01
  WS02003072WS02003073        0.01      0.01      0.01      3.98         0.01
  YS02001793JiankangQianchi        0.01      0.01      0.16      0.01         0.01
  3                           0.01      0.01      0.01      0.01         0.01
  
  
  ***************
  Pumping Summary
  ***************
  
  ---------------------------------------------------------------------------------------------------------
                                                  Min       Avg       Max     Total     Power    % Time Off
                        Percent   Number of      Flow      Flow      Flow    Volume     Usage    Pump Curve
  Pump                 Utilized   Start-Ups       LPS       LPS       LPS  10^6 ltr     Kw-hr    Low   High
  ---------------------------------------------------------------------------------------------------------
  CC-Pump-1               49.48           5      0.00    105.93    200.00     1.394      6.26    0.0  100.0
  CC-Pump-2               62.24           4      0.00    118.45    200.00     1.919      8.48    0.0  100.0
  JK-Pump-1               76.59           5      0.00     71.80    300.00     1.093     20.80    0.0    0.0
  JK-Pump-2               78.73           8      0.00     79.37    300.00     1.270     24.03    0.0    0.0
  XR-Pump-1               82.97          10      0.00     64.69     95.00     1.482     24.98    0.0    0.0
  XR-Pump-2               80.84           5      0.00     74.35     95.00     1.682     27.05    0.0    0.0
  XR-Pump-3               82.97           8      0.00     70.15     95.00     1.568     26.02    0.0    0.0
  XR-Pump-4               91.48           5      0.00     67.67     95.00     1.739     29.25    0.0    0.0
  

  Analysis begun on:  Tue Dec 21 14:27:05 2021
  Analysis ended on:  Tue Dec 21 14:27:08 2021
  Total elapsed time: 00:00:03