
  EPA STORM WATER MANAGEMENT MODEL - VERSION 5.1 (Build 5.3.0.dev0)
  --------------------------------------------------------------

  WARNING 04: minimum elevation drop used for Conduit WS02004404WS02004405
  WARNING 03: negative offset ignored for Link YS02001904YS02001907
  
  *********************************************************
  NOTE: The summary statistics displayed in this report are
  based on results found at every computational time step,  
  not just on results from each reporting time step.
  *********************************************************
  
  ****************
  Analysis Options
  ****************
  Flow Units ............... LPS
  Process Models:
    Rainfall/Runoff ........ YES
    RDII ................... NO
    Snowmelt ............... NO
    Groundwater ............ NO
    Flow Routing ........... YES
    Ponding Allowed ........ NO
    Water Quality .......... NO
  Infiltration Method ...... HORTON
  Flow Routing Method ...... DYNWAVE
  Surcharge Method ......... EXTRAN
  Starting Date ............ 08/28/2015 08:00:00
  Ending Date .............. 08/28/2015 15:50:00
  Antecedent Dry Days ...... 8.0
  Report Time Step ......... 00:01:00
  Wet Time Step ............ 00:01:00
  Dry Time Step ............ 00:01:00
  Routing Time Step ........ 5.00 sec
  Variable Time Step ....... YES
  Maximum Trials ........... 8
  Number of Threads ........ 4
  Head Tolerance ........... 0.001500 m
  
  
  **************************        Volume         Depth
  Runoff Quantity Continuity     hectare-m            mm
  **************************     ---------       -------
  Total Precipitation ......         2.984         6.533
  Evaporation Loss .........         0.000         0.000
  Infiltration Loss ........         0.753         1.648
  Surface Runoff ...........         1.324         2.899
  Final Storage ............         0.907         1.987
  Continuity Error (%) .....        -0.018
  
  
  **************************        Volume        Volume
  Flow Routing Continuity        hectare-m      10^6 ltr
  **************************     ---------     ---------
  Dry Weather Inflow .......         0.616         6.165
  Wet Weather Inflow .......         1.323        13.234
  Groundwater Inflow .......         0.000         0.000
  RDII Inflow ..............         0.000         0.000
  External Inflow ..........         0.102         1.024
  External Outflow .........         1.965        19.652
  Flooding Loss ............         0.000         0.000
  Evaporation Loss .........         0.000         0.000
  Exfiltration Loss ........         0.000         0.000
  Initial Stored Volume ....         0.076         0.761
  Final Stored Volume ......         0.335         3.348
  Continuity Error (%) .....        -8.580
  
  
  *************************
  Highest Continuity Errors
  *************************
  Node JK-storage (-43.57%)
  Node HS02004842 (26.48%)
  Node YS02001884 (20.92%)
  Node YS02001774 (12.10%)
  Node YSB1171 (6.19%)
  
  
  ***************************
  Time-Step Critical Elements
  ***************************
  Link 3 (50.47%)
  Link WS02006252WS02006251 (36.09%)
  Link WS02006238WS02006235 (5.06%)
  Link WS02006280WS02006229 (1.98%)
  Link 2 (1.72%)
  
  
  ********************************
  Highest Flow Instability Indexes
  ********************************
  Link WS02006113WS02006111 (36)
  Link WS02006111WS02006112 (25)
  Link YS02006558YS02006561 (17)
  Link YS02164001YS02001641 (9)
  Link YS02001641YS02001644 (8)
  
  
  *************************
  Routing Time Step Summary
  *************************
  Minimum Time Step           :     0.31 sec
  Average Time Step           :     0.87 sec
  Maximum Time Step           :     5.00 sec
  Percent in Steady State     :    -0.00
  Average Iterations per Step :     3.08
  Percent Not Converging      :    12.86
  
  
  ***************************
  Subcatchment Runoff Summary
  ***************************
  
  ------------------------------------------------------------------------------------------------------------------------------
                            Total      Total      Total      Total     Imperv       Perv      Total       Total     Peak  Runoff
                           Precip      Runon       Evap      Infil     Runoff     Runoff     Runoff      Runoff   Runoff   Coeff
  Subcatchment                 mm         mm         mm         mm         mm         mm         mm    10^6 ltr      LPS
  ------------------------------------------------------------------------------------------------------------------------------
  sub0                       6.53       0.00       0.00       0.46       4.81       0.00       4.81        0.00     1.70   0.736
  sub1                       6.53       0.00       0.00       0.72       4.56       0.00       4.56        0.03     8.92   0.698
  sub2                       6.53       0.00       0.00       2.42       3.21       0.00       3.21        0.03     7.90   0.491
  sub3                       6.53       0.00       0.00       2.42       3.17       0.00       3.17        0.07    16.25   0.486
  sub4                       6.53       0.00       0.00       0.72       4.42       0.00       4.42        0.09    18.23   0.676
  sub5                       6.53       0.00       0.00       0.46       4.76       0.00       4.76        0.05    15.87   0.729
  sub7                       6.53       0.00       0.00       0.59       4.69       0.00       4.69        0.02     5.60   0.718
  sub8                       6.53       0.00       0.00       0.59       4.68       0.00       4.68        0.03     9.88   0.717
  sub9                       6.53       0.00       0.00       0.59       4.68       0.00       4.68        0.02     7.33   0.716
  sub10                      6.53       0.00       0.00       0.52       4.72       0.00       4.72        0.05    15.85   0.722
  sub11                      6.53       0.00       0.00       0.52       4.74       0.00       4.74        0.06    18.60   0.725
  sub12                      6.53       0.00       0.00       0.85       4.49       0.00       4.49        0.04    15.74   0.688
  sub14                      6.53       0.00       0.00       0.59       4.68       0.00       4.68        0.04    14.32   0.716
  sub15                      6.53       0.00       0.00       1.96       3.59       0.00       3.59        0.06    19.42   0.550
  sub16                      6.53       0.00       0.00       2.16       3.46       0.00       3.46        0.04    13.85   0.529
  sub17                      6.53       0.00       0.00       2.09       3.51       0.00       3.51        0.03    11.18   0.537
  sub22                      6.53       0.00       0.00       2.81       2.94       0.00       2.94        0.19    63.64   0.449
  sub23                      6.53       0.00       0.00       2.42       3.25       0.00       3.25        0.15    54.16   0.497
  sub60                      6.53       0.00       0.00       0.78       3.24       0.00       3.24        0.98    93.37   0.497
  sub61                      6.53       0.00       0.00       1.11       3.44       0.00       3.44        1.06   116.86   0.527
  sub62                      6.53       0.00       0.00       0.52       3.70       0.00       3.70        1.14   119.50   0.567
  sub63                      6.53       0.00       0.00       1.89       3.06       0.00       3.06        0.93   108.99   0.468
  sub64                      6.53       0.00       0.00       0.98       3.10       0.00       3.10        0.94    88.71   0.475
  sub65                      6.53       0.00       0.00       0.85       3.14       0.00       3.14        0.97    90.05   0.481
  sub66                      6.53       0.00       0.00       1.89       2.70       0.00       2.70        0.83    81.23   0.414
  sub67                      6.53       0.00       0.00       0.52       4.05       0.00       4.05        1.25   153.14   0.619
  sub68                      6.53       0.00       0.00       0.91       3.66       0.00       3.66        1.13   129.14   0.560
  sub69                      6.53       0.00       0.00       0.98       3.92       0.00       3.92        0.92   128.07   0.601
  sub70                      6.53       4.01       0.00       3.58       4.89       0.00       4.89        1.12   104.96   0.464
  sub71                      6.53       0.00       0.00       0.52       3.55       0.00       3.55        0.84    83.47   0.543
  sub72                      6.53       0.00       0.00       0.46       2.55       0.00       2.55        0.52    39.79   0.390
  sub73                      6.53       4.76       0.00       3.84       5.03       0.00       5.03        1.18    90.59   0.445
  sub74                      6.53       0.00       0.00       4.90       1.18       0.00       1.18        0.47    71.42   0.181
  
  
  ******************
  Node Depth Summary
  ******************
  
  ---------------------------------------------------------------------------------
                                 Average  Maximum  Maximum  Time of Max    Reported
                                   Depth    Depth      HGL   Occurrence   Max Depth
  Node                 Type       Meters   Meters   Meters  days hr:min      Meters
  ---------------------------------------------------------------------------------
  WS02001211           JUNCTION     0.67     0.78     5.62     0  02:51        0.78
  WS02001212           JUNCTION     0.39     0.49     5.56     0  02:51        0.49
  WS02001213           JUNCTION     0.63     0.74     5.51     0  02:51        0.74
  WS02003069           JUNCTION     0.45     0.56     5.15     0  02:53        0.56
  WS02003072           JUNCTION     0.52     0.62     4.99     0  02:53        0.62
  WS02003073           JUNCTION     0.31     0.38     4.45     0  02:54        0.38
  WS02003060           JUNCTION     0.40     0.50     5.43     0  02:52        0.50
  WS02003066           JUNCTION     0.24     0.29     5.85     0  02:36        0.29
  WS02003059           JUNCTION     0.69     0.80     5.48     0  02:52        0.80
  WS02003067           JUNCTION     0.59     0.70     6.02     0  02:36        0.70
  WS02004401           JUNCTION     0.69     0.84     6.84     0  02:33        0.84
  WS02004402           JUNCTION     0.72     0.87     6.83     0  02:33        0.87
  WS02004403           JUNCTION     0.74     0.88     6.81     0  02:34        0.88
  WS02004404           JUNCTION     0.82     0.96     6.81     0  02:34        0.96
  WS02004406           JUNCTION     0.82     0.95     6.78     0  02:32        0.95
  WS02004409           JUNCTION     0.52     0.66     6.43     0  02:36        0.66
  WS02004410           JUNCTION     0.53     0.67     6.39     0  02:36        0.67
  WS02004411           JUNCTION     0.55     0.68     6.36     0  02:36        0.68
  WS02004412           JUNCTION     0.56     0.69     6.33     0  02:37        0.69
  WS02004413           JUNCTION     0.72     0.85     6.32     0  02:36        0.85
  WS02004405           JUNCTION     0.82     0.95     6.80     0  02:32        0.95
  WS02006109           JUNCTION     0.78     0.96     7.58     0  02:28        0.96
  WS02006110           JUNCTION     0.77     0.91     7.50     0  02:28        0.91
  WS02006111           JUNCTION     0.23     0.28     6.99     0  02:31        0.28
  WS02006112           JUNCTION     0.87     1.04     6.92     0  02:33        1.04
  WS02006113           JUNCTION     0.35     0.45     7.34     0  02:29        0.45
  WS02006115           JUNCTION     0.59     0.74     6.88     0  02:33        0.74
  WS02006116           JUNCTION     0.67     0.82     6.86     0  02:33        0.82
  WS02006230           JUNCTION     0.76     0.99     7.73     0  02:29        0.99
  WS02006231           JUNCTION     0.51     0.65     7.77     0  02:32        0.65
  WS02006232           JUNCTION     0.65     0.78     7.81     0  02:33        0.78
  WS02006234           JUNCTION     0.58     0.72     7.88     0  03:02        0.72
  WS02006235           JUNCTION     0.61     0.76     7.93     0  03:02        0.76
  WS02006238           JUNCTION     0.64     0.79     7.93     0  03:01        0.79
  WS02006240           JUNCTION     0.54     0.72     8.01     0  03:01        0.72
  WS02006242           JUNCTION     0.60     0.79     8.06     0  03:01        0.79
  WS02006243           JUNCTION     0.48     0.68     8.10     0  03:01        0.68
  WS02006245           JUNCTION     0.46     0.65     8.13     0  03:01        0.65
  WS02006247           JUNCTION     0.48     0.66     8.16     0  03:01        0.66
  WS02006248           JUNCTION     0.42     0.59     8.18     0  03:01        0.59
  WS02006249           JUNCTION     0.45     0.61     8.21     0  03:00        0.61
  WS02006239           JUNCTION     0.60     0.76     7.97     0  03:01        0.76
  WS02006251           JUNCTION     0.44     0.63     8.30     0  03:00        0.63
  WS02006252           JUNCTION     0.40     0.59     8.83     0  05:09        0.59
  WS02006253           JUNCTION     0.47     0.66     8.30     0  03:00        0.65
  WS02006256           JUNCTION     1.06     1.21     8.14     0  02:40        1.21
  WS02004138           JUNCTION     0.15     0.19     7.44     0  00:40        0.19
  WS02004407           JUNCTION     0.23     0.29     6.61     0  02:33        0.29
  WS02006228           JUNCTION     0.78     0.99     7.64     0  02:28        0.99
  WS02006229           JUNCTION     0.76     0.99     7.68     0  02:28        0.99
  WS02006280           JUNCTION     0.06     0.16     8.43     0  02:17        0.16
  WS02006284           JUNCTION     0.35     0.50     8.90     0  02:16        0.50
  WS02006287           JUNCTION     0.08     0.23     9.19     0  02:16        0.23
  WSF200               JUNCTION     0.23     0.31     5.54     0  02:36        0.31
  HS02004901           JUNCTION     0.11     0.25    10.07     0  02:14        0.25
  HS02004881           JUNCTION     0.01     0.03     9.06     0  02:16        0.03
  HS02004876           JUNCTION     0.04     0.11     9.14     0  02:13        0.11
  HS02004870           JUNCTION     0.01     0.05     9.33     0  02:17        0.05
  HS02004862           JUNCTION     0.01     0.05     9.44     0  02:17        0.05
  HS02004856           JUNCTION     0.07     0.11     9.53     0  02:17        0.11
  HS02004852           JUNCTION     0.01     0.03     9.54     0  02:18        0.03
  HS02004848           JUNCTION     0.01     0.03     9.63     0  02:16        0.03
  HS02004842           JUNCTION     0.33     0.36     9.63     0  02:16        0.36
  HS02004837           JUNCTION     0.03     0.05     9.63     0  02:16        0.05
  HS02004830           JUNCTION     0.04     0.07     9.53     0  02:17        0.07
  HS02004824           JUNCTION     0.02     0.04     9.45     0  02:20        0.04
  HS02004817           JUNCTION     0.43     0.54     9.39     0  02:17        0.54
  HS02004807           JUNCTION     0.11     0.22     9.39     0  02:17        0.22
  HS02004802           JUNCTION     0.15     0.25     9.38     0  02:17        0.25
  HS02004799           JUNCTION     0.10     0.28     9.49     0  02:15        0.28
  HS02004792           JUNCTION     0.03     0.11     9.63     0  02:14        0.11
  HS02004788           JUNCTION     0.02     0.08     9.98     0  02:15        0.08
  HS02004785           JUNCTION     0.04     0.15    10.05     0  02:14        0.15
  HS02004777           JUNCTION     0.14     0.27    10.07     0  02:14        0.27
  HS02004770           JUNCTION     0.10     0.24    10.07     0  02:14        0.24
  HS02004480           JUNCTION     0.07     0.22     9.46     0  02:15        0.22
  HS02004479           JUNCTION     0.10     0.26     9.46     0  02:15        0.26
  HS02004478           JUNCTION     0.05     0.14     9.37     0  02:16        0.14
  YS02001745           JUNCTION     0.12     0.32     7.84     0  04:45        0.32
  YS02001748           JUNCTION     0.47     0.77     7.85     0  04:45        0.74
  YS02001751           JUNCTION     0.65     1.55     8.42     0  04:46        0.98
  YS02001754           JUNCTION     0.90     1.68     8.29     0  04:46        1.24
  YS02001762           JUNCTION     1.10     1.69     8.09     0  04:46        1.47
  YS02001765           JUNCTION     1.05     1.65     8.10     0  04:46        1.43
  YS02001767           JUNCTION     1.02     1.68     8.17     0  03:57        1.41
  YS02001770           JUNCTION     1.01     1.80     8.29     0  03:57        1.44
  YS02001774           JUNCTION     1.08     1.92     8.34     0  03:57        1.52
  YS02001779           JUNCTION     0.83     1.68     8.37     0  03:57        1.28
  YS02001882           JUNCTION     0.31     0.51     7.22     0  02:50        0.51
  YS02001884           JUNCTION     0.41     0.61     7.22     0  02:50        0.61
  YS02001759           JUNCTION     1.13     1.69     8.05     0  04:46        1.49
  YS02001887           JUNCTION     0.48     0.68     7.22     0  02:50        0.68
  YS02001890           JUNCTION     0.51     0.71     7.22     0  02:50        0.71
  YS02001898           JUNCTION     0.28     0.47     7.20     0  02:50        0.47
  YS02001901           JUNCTION     0.40     0.60     7.20     0  02:50        0.60
  YS02001904           JUNCTION     0.38     0.57     7.20     0  02:52        0.57
  YS02001907           JUNCTION     0.71     0.91     7.20     0  02:52        0.91
  YS02001910           JUNCTION     0.50     0.70     7.20     0  02:52        0.70
  YS02001915           JUNCTION     0.30     0.48     7.20     0  02:53        0.48
  YS02001918           JUNCTION     0.09     0.13     7.20     0  02:53        0.13
  YS02001619           JUNCTION     0.61     0.91     7.84     0  04:42        0.90
  YS02001629           JUNCTION     0.96     1.34     7.89     0  04:38        1.33
  YS02001641           JUNCTION     1.07     1.48     7.92     0  04:33        1.40
  YS02001644           JUNCTION     1.07     1.49     7.93     0  04:33        1.41
  YS02001652           JUNCTION     0.91     1.50     8.09     0  04:51        1.23
  YS02001655           JUNCTION     0.68     1.76     8.61     0  04:51        1.02
  YS02001920           JUNCTION     0.18     0.23     7.23     0  02:59        0.23
  YS02001923           JUNCTION     0.07     0.09     7.35     0  03:01        0.09
  YS02001926           JUNCTION     0.15     0.19     7.63     0  03:01        0.19
  YS02001929           JUNCTION     0.07     0.10     7.79     0  03:01        0.10
  YS02001658           JUNCTION     0.41     0.72     7.86     0  04:38        0.71
  YS02001661           JUNCTION     0.21     0.44     7.84     0  04:43        0.43
  YS02001664           JUNCTION     0.07     0.13     8.05     0  02:43        0.13
  YS02001622           JUNCTION     0.63     0.93     7.84     0  04:40        0.93
  YS02001633           JUNCTION     1.05     1.43     7.88     0  04:38        1.41
  YS02001649           JUNCTION     1.11     1.55     7.94     0  04:46        1.44
  YS02001757           JUNCTION     1.23     1.77     8.03     0  04:46        1.58
  YS02001895           JUNCTION     0.28     0.47     7.21     0  02:50        0.47
  YS02001625           JUNCTION     0.91     1.23     7.84     0  04:40        1.21
  YS02163301           JUNCTION     0.99     1.37     7.89     0  04:40        1.35
  YS02163601           JUNCTION     1.11     1.51     7.91     0  04:33        1.45
  YS02164001           JUNCTION     1.05     1.46     7.92     0  04:33        1.38
  YS02001647           JUNCTION     0.90     1.34     7.95     0  04:33        1.23
  YSB1154              JUNCTION     0.24     0.40     9.46     0  02:15        0.40
  YSB6556              JUNCTION     0.14     0.29     9.46     0  02:15        0.29
  YSB1174              JUNCTION     0.19     0.35     9.46     0  02:15        0.35
  YSB1171              JUNCTION     0.39     0.56     9.46     0  02:15        0.56
  YS02006553           JUNCTION     0.71     0.92     7.20     0  02:51        0.92
  YS02006561           JUNCTION     0.15     0.25     6.91     0  02:49        0.25
  YS02006556           JUNCTION     0.69     0.89     7.20     0  02:51        0.88
  YS02006558           JUNCTION     0.73     0.93     7.20     0  02:50        0.93
  YS02001783           JUNCTION     0.27     0.45     6.59     0  02:50        0.45
  YS02001784           JUNCTION     0.30     0.48     6.54     0  02:50        0.48
  YS02001786           JUNCTION     0.26     0.40     6.43     0  02:50        0.40
  YS02001788           JUNCTION     0.19     0.31     6.28     0  02:51        0.31
  YS02001790           JUNCTION     0.23     0.37     6.02     0  02:51        0.37
  YS02001791           JUNCTION     0.15     0.24     5.71     0  02:51        0.24
  YS02001793           JUNCTION     0.10     0.16     4.99     0  02:46        0.16
  WS02004139           JUNCTION     0.61     0.72     5.63     0  02:50        0.72
  WSC                  OUTFALL      0.31     0.38     1.05     0  02:54        0.38
  3                    OUTFALL      0.10     0.20     6.20     0  02:40        0.20
  4                    OUTFALL      0.03     0.11     7.11     0  03:00        0.11
  5                    OUTFALL      0.00     0.00     5.00     0  00:00        0.00
  JK-storage           STORAGE      0.12     3.00     3.80     0  00:00        2.70
  CC-storage           STORAGE      0.47     0.77     7.77     0  04:44        0.77
  XR-storage           STORAGE      3.67     6.61     4.61     0  06:35        6.61
  
  
  *******************
  Node Inflow Summary
  *******************
  
  -------------------------------------------------------------------------------------------------
                                  Maximum  Maximum                  Lateral       Total        Flow
                                  Lateral    Total  Time of Max      Inflow      Inflow     Balance
                                   Inflow   Inflow   Occurrence      Volume      Volume       Error
  Node                 Type           LPS      LPS  days hr:min    10^6 ltr    10^6 ltr     Percent
  -------------------------------------------------------------------------------------------------
  WS02001211           JUNCTION      7.35   382.18     0  02:20       0.207        7.47       0.476
  WS02001212           JUNCTION      0.00   378.27     0  02:51           0        7.43       0.287
  WS02001213           JUNCTION      0.00   377.08     0  02:51           0        7.41       0.301
  WS02003069           JUNCTION      0.32   888.27     0  02:52     0.00902        15.5       0.187
  WS02003072           JUNCTION      0.00   887.94     0  02:53           0        15.4       0.230
  WS02003073           JUNCTION      1.82   889.56     0  02:54      0.0514        15.5       0.255
  WS02003060           JUNCTION     16.53   888.03     0  02:52       0.466        15.5       0.180
  WS02003066           JUNCTION      0.00   524.96     0  02:36           0        7.67       0.056
  WS02003059           JUNCTION      0.00   376.86     0  02:52           0        7.39       0.505
  WS02003067           JUNCTION      0.00   524.89     0  02:36           0        7.68       0.119
  WS02004401           JUNCTION      0.00   528.18     0  02:31           0        7.92       0.282
  WS02004402           JUNCTION      0.00   527.69     0  02:32           0         7.9       0.265
  WS02004403           JUNCTION      0.00   527.45     0  02:32           0        7.88       0.240
  WS02004404           JUNCTION      0.16   527.40     0  02:32     0.00457        7.86       0.180
  WS02004406           JUNCTION      0.00   527.47     0  02:32           0        7.83       0.437
  WS02004409           JUNCTION      0.00   527.08     0  02:33           0        7.79       0.210
  WS02004410           JUNCTION      0.00   526.16     0  02:34           0        7.77       0.234
  WS02004411           JUNCTION      0.00   525.57     0  02:35           0        7.75       0.239
  WS02004412           JUNCTION      0.00   525.20     0  02:35           0        7.73       0.257
  WS02004413           JUNCTION      0.00   525.07     0  02:35           0        7.71       0.381
  WS02004405           JUNCTION      0.04   527.40     0  02:32     0.00107        7.85       0.268
  WS02006109           JUNCTION      1.23   523.18     0  02:28      0.0347        8.02       0.275
  WS02006110           JUNCTION      0.00   523.19     0  02:28           0           8       0.261
  WS02006111           JUNCTION      0.00   543.08     0  02:29           0        7.97       0.060
  WS02006112           JUNCTION     11.18   533.70     0  02:31      0.0301        7.99       0.378
  WS02006113           JUNCTION      0.00   523.39     0  02:28           0        7.98       0.137
  WS02006115           JUNCTION      0.00   531.46     0  02:31           0        7.96       0.269
  WS02006116           JUNCTION      0.00   529.17     0  02:31           0        7.94       0.253
  WS02006230           JUNCTION     10.28   397.08     0  04:02        0.29        7.02       0.213
  WS02006231           JUNCTION      0.00   387.94     0  04:02           0        6.74       0.168
  WS02006232           JUNCTION      0.00   388.00     0  04:02           0        6.76       0.253
  WS02006234           JUNCTION      0.00   389.23     0  04:01           0        6.77       0.139
  WS02006235           JUNCTION      0.00   388.81     0  04:01           0        6.81       0.167
  WS02006238           JUNCTION      0.00   336.56     0  07:49           0        4.91       0.159
  WS02006240           JUNCTION      0.00   337.20     0  07:47           0        4.91       0.301
  WS02006242           JUNCTION      0.00   339.12     0  07:42           0        4.92       0.367
  WS02006243           JUNCTION      0.00   344.03     0  07:42           0        4.91       0.060
  WS02006245           JUNCTION      0.00   346.55     0  07:41           0        4.92       0.271
  WS02006247           JUNCTION      0.00   349.46     0  07:41           0        4.93       0.206
  WS02006248           JUNCTION      0.00   354.33     0  07:41           0        4.94       0.138
  WS02006249           JUNCTION      0.00   412.99     0  03:00           0        5.54       0.274
  WS02006239           JUNCTION      0.00   336.74     0  07:50           0        4.91       0.256
  WS02006251           JUNCTION      0.08   414.57     0  03:00     0.00217        5.58       0.252
  WS02006252           JUNCTION      0.00   400.00     0  04:50           0        5.39       0.010
  WS02006253           JUNCTION      1.70    49.97     0  02:16     0.00389       0.196       4.201
  WS02006256           JUNCTION      0.00   600.00     0  03:30           0        5.59       0.049
  WS02004138           JUNCTION      0.00   379.98     0  02:50           0         7.3       0.072
  WS02004407           JUNCTION      0.00   527.24     0  02:32           0        7.79       0.099
  WS02006228           JUNCTION      0.00   521.95     0  02:28           0           8       0.195
  WS02006229           JUNCTION      0.00   521.94     0  02:28           0        8.01       0.166
  WS02006280           JUNCTION      0.00   252.66     0  02:17           0        1.01       0.007
  WS02006284           JUNCTION      0.10   252.65     0  02:16      0.0027        1.01       0.107
  WS02006287           JUNCTION      0.00   252.54     0  02:16           0        1.01       0.072
  WSF200               JUNCTION      0.00   524.99     0  02:36           0        7.67       0.052
  HS02004901           JUNCTION     13.85    13.85     0  02:09      0.0362      0.0363       5.082
  HS02004881           JUNCTION      5.60    48.66     0  02:16      0.0158       0.167       0.215
  HS02004876           JUNCTION      8.92    43.39     0  02:16      0.0303       0.152       0.350
  HS02004870           JUNCTION      9.88    34.64     0  02:16      0.0299       0.122       0.088
  HS02004862           JUNCTION      8.10    25.41     0  02:17      0.0355      0.0919       0.183
  HS02004856           JUNCTION      7.33    17.37     0  02:16      0.0225      0.0578       2.557
  HS02004852           JUNCTION      0.00    10.50     0  02:16           0      0.0353       0.146
  HS02004848           JUNCTION     16.25    16.25     0  02:19      0.0714      0.0714       0.061
  HS02004842           JUNCTION      0.00     6.34     0  02:29           0      0.0491      36.018
  HS02004837           JUNCTION     22.20    27.47     0  02:15       0.231       0.267       0.305
  HS02004830           JUNCTION      0.15    27.60     0  02:16     0.00423       0.258       0.481
  HS02004824           JUNCTION     18.28    45.66     0  02:19      0.0935        0.35       0.154
  HS02004817           JUNCTION      0.60    46.25     0  02:20      0.0169       0.366       4.768
  HS02004807           JUNCTION     18.60    63.20     0  02:18       0.055       0.404       1.056
  HS02004802           JUNCTION      0.00    63.61     0  02:19           0         0.4       1.026
  HS02004799           JUNCTION     14.32   161.55     0  02:14      0.0445       0.531       0.430
  HS02004792           JUNCTION     63.92   147.51     0  02:14       0.193       0.487       0.084
  HS02004788           JUNCTION     21.09    85.81     0  02:14       0.109       0.295       0.132
  HS02004785           JUNCTION      0.15    65.08     0  02:14     0.00423       0.188       0.258
  HS02004777           JUNCTION      0.03    65.42     0  02:13    0.000846       0.188       2.825
  HS02004770           JUNCTION     54.16    66.68     0  02:11       0.155       0.189       1.662
  HS02004480           JUNCTION      0.00   190.54     0  02:15           0       0.621       0.120
  HS02004479           JUNCTION      0.00    29.57     0  02:16           0       0.103       0.716
  HS02004478           JUNCTION      0.00   252.52     0  02:16           0        1.01       0.061
  YS02001745           JUNCTION     93.38   127.56     0  05:07       0.983        1.01       0.101
  YS02001748           JUNCTION      0.04   303.26     0  04:29     0.00127         1.2       0.288
  YS02001751           JUNCTION      0.01   305.35     0  04:28     0.00031        1.17       0.706
  YS02001754           JUNCTION      0.26   144.21     0  03:02     0.00733       0.998       1.164
  YS02001762           JUNCTION      0.00   141.10     0  02:58           0        1.09       1.841
  YS02001765           JUNCTION      0.00   139.29     0  02:33           0        1.09       2.049
  YS02001767           JUNCTION      0.54   136.01     0  02:58      0.0151        1.11       2.866
  YS02001770           JUNCTION    119.65   147.27     0  02:58        1.14        1.22       2.028
  YS02001774           JUNCTION      0.00    51.84     0  03:57           0       0.191      13.761
  YS02001779           JUNCTION      0.01    52.55     0  03:57    0.000141      0.0867      10.293
  YS02001882           JUNCTION      0.00     4.84     0  02:06           0     0.00607      40.655
  YS02001884           JUNCTION      0.00    13.78     0  02:05           0      0.0241      26.457
  YS02001759           JUNCTION    116.90   256.86     0  02:58        1.06        2.12       1.043
  YS02001887           JUNCTION    153.59   153.68     0  02:40        1.26        1.27       0.580
  YS02001890           JUNCTION      0.00   153.01     0  02:43           0        1.25       0.648
  YS02001898           JUNCTION      0.00   152.10     0  02:46           0        1.23       0.190
  YS02001901           JUNCTION      0.00   152.18     0  02:42           0        1.23       0.464
  YS02001904           JUNCTION      0.00   152.27     0  02:50           0        1.23       0.431
  YS02001907           JUNCTION      0.00   278.55     0  02:50           0        2.65       0.849
  YS02001910           JUNCTION      0.00   128.38     0  03:01           0        1.43       0.731
  YS02001915           JUNCTION     83.49   126.75     0  02:59       0.838        1.43       0.333
  YS02001918           JUNCTION      0.00    42.77     0  03:02           0       0.597       0.207
  YS02001619           JUNCTION     81.23    85.80     0  04:39       0.828       0.831       0.579
  YS02001629           JUNCTION      0.00   172.43     0  04:38           0       0.799       1.974
  YS02001641           JUNCTION      0.00   178.06     0  02:47           0        1.68       1.163
  YS02001644           JUNCTION     88.75   266.65     0  02:55       0.944        2.59       0.933
  YS02001652           JUNCTION      0.00   183.80     0  03:25           0        0.95       1.436
  YS02001655           JUNCTION      0.15   251.36     0  04:51     0.00434        1.07       0.979
  YS02001920           JUNCTION      2.87    42.66     0  03:01      0.0809       0.599       0.364
  YS02001923           JUNCTION      0.04    39.79     0  03:01     0.00106       0.518       0.064
  YS02001926           JUNCTION      0.05    39.83     0  03:01     0.00147        0.52       0.453
  YS02001929           JUNCTION     39.79    39.79     0  03:01       0.519       0.519       0.063
  YS02001658           JUNCTION      0.00   251.42     0  04:55           0        1.15       0.319
  YS02001661           JUNCTION      0.00   185.54     0  04:37           0        1.02       0.085
  YS02001664           JUNCTION    108.99   108.99     0  02:43       0.926       0.926       0.014
  YS02001622           JUNCTION      0.00   116.49     0  04:39           0       0.845       1.726
  YS02001633           JUNCTION     90.25   184.99     0  02:44       0.972        1.73       1.673
  YS02001649           JUNCTION      0.00   383.53     0  02:55           0        3.45       1.025
  YS02001757           JUNCTION      0.00   686.72     0  02:58           0        6.44       1.433
  YS02001895           JUNCTION      0.00   152.51     0  02:42           0        1.24       0.315
  YS02001625           JUNCTION      0.00   172.64     0  04:38           0       0.845       3.657
  YS02163301           JUNCTION      0.00   113.12     0  02:38           0       0.779       2.692
  YS02163601           JUNCTION      0.11   176.89     0  02:52      0.0031        1.69       1.707
  YS02164001           JUNCTION      0.00   174.68     0  02:48           0        1.68       1.049
  YS02001647           JUNCTION      0.00   268.16     0  02:50           0        2.55       0.779
  YSB1154              JUNCTION     15.87    15.87     0  02:14      0.0539      0.0553       2.682
  YSB6556              JUNCTION      0.00    15.85     0  02:16           0      0.0562       2.267
  YSB1174              JUNCTION     15.74    15.74     0  02:08      0.0392      0.0403       3.290
  YSB1171              JUNCTION      0.00    29.53     0  02:14           0       0.102       6.602
  YS02006553           JUNCTION      0.00   279.29     0  03:00           0        2.64       0.550
  YS02006561           JUNCTION      0.00   424.49     0  02:50           0        3.74       0.009
  YS02006556           JUNCTION      0.00   280.33     0  03:00           0        2.65       0.398
  YS02006558           JUNCTION    130.02   410.48     0  02:50        1.15        3.77       0.132
  YS02001783           JUNCTION      0.00   406.77     0  02:50           0        3.74       0.044
  YS02001784           JUNCTION      1.06   407.28     0  02:50      0.0299        3.76       0.072
  YS02001786           JUNCTION      0.06   407.34     0  02:50     0.00159        3.76       0.070
  YS02001788           JUNCTION      0.07   407.48     0  02:51       0.002        3.76       0.040
  YS02001790           JUNCTION      0.15   407.78     0  02:51     0.00437        3.77       0.050
  YS02001791           JUNCTION      0.00   407.56     0  02:51           0        3.76       0.026
  YS02001793           JUNCTION      0.00   407.59     0  02:51           0        3.76       0.007
  WS02004139           JUNCTION      0.32   379.65     0  02:50     0.00905         7.3       0.530
  WSC                  OUTFALL       0.00   889.24     0  02:54           0        15.4       0.000
  3                    OUTFALL       0.00   503.01     0  02:40           0        3.66       0.000
  4                    OUTFALL       0.00   113.71     0  03:00           0       0.582       0.000
  5                    OUTFALL       0.00     0.00     0  00:00           0           0       0.000 ltr
  JK-storage           STORAGE       0.00   408.04     0  02:49           0        3.91     -30.348
  CC-storage           STORAGE       0.00   686.36     0  03:00           0        6.34       0.175
  XR-storage           STORAGE     351.12   351.12     0  02:52        7.29        7.89      -0.482
  
  
  **********************
  Node Surcharge Summary
  **********************
  
  Surcharging occurs when water rises above the top of the highest conduit.
  ---------------------------------------------------------------------
                                               Max. Height   Min. Depth
                                   Hours       Above Crown    Below Rim
  Node                 Type      Surcharged         Meters       Meters
  ---------------------------------------------------------------------
  WS02006109           JUNCTION        2.84          0.137        1.683
  WS02006110           JUNCTION        0.10          0.002        1.848
  WS02006112           JUNCTION        0.39          0.040        1.640
  WS02006232           JUNCTION        3.03          0.075        1.405
  WS02006234           JUNCTION        0.04          0.003        1.237
  WS02006235           JUNCTION        1.98          0.051        1.239
  WS02006238           JUNCTION        2.56          0.070        1.360
  WS02006240           JUNCTION        0.06          0.008        1.382
  WS02006242           JUNCTION        1.71          0.058        0.762
  WS02006239           JUNCTION        0.22          0.024        1.266
  WS02006252           JUNCTION        2.86          0.193        0.907
  WS02006228           JUNCTION        2.69          0.162        2.038
  YS02001751           JUNCTION        0.01          0.545        0.655
  YS02001754           JUNCTION        1.64          0.628        0.522
  YS02001762           JUNCTION        5.15          0.690        0.460
  YS02001765           JUNCTION        4.45          0.647        0.453
  YS02001767           JUNCTION        4.26          0.678        0.352
  YS02001770           JUNCTION        4.05          0.767        0.153
  YS02001774           JUNCTION        4.65          0.916        0.134
  YS02001779           JUNCTION        1.23          0.680        0.000
  YS02001759           JUNCTION        5.29          0.689        0.521
  YS02001641           JUNCTION        4.53          0.481        0.619
  YS02001644           JUNCTION        4.55          0.494        0.426
  YS02001652           JUNCTION        2.17          0.469        0.661
  YS02001655           JUNCTION        0.03          0.764        0.436
  YS02001633           JUNCTION        4.36          0.408        0.652
  YS02001649           JUNCTION        5.19          0.545        0.505
  YS02001757           JUNCTION        5.43          0.766        0.444
  YS02001625           JUNCTION        2.47          0.232        0.548
  YS02163301           JUNCTION        4.14          0.370        0.660
  YS02163601           JUNCTION        5.16          0.510        0.570
  YS02164001           JUNCTION        4.44          0.463        0.637
  YS02001647           JUNCTION        2.35          0.335        0.565
  
  
  *********************
  Node Flooding Summary
  *********************
  
  Flooding refers to all water that overflows a node, whether it ponds or not.
  --------------------------------------------------------------------------
                                                             Total   Maximum
                                 Maximum   Time of Max       Flood    Ponded
                        Hours       Rate    Occurrence      Volume     Depth
  Node                 Flooded       LPS   days hr:min    10^6 ltr    Meters
  --------------------------------------------------------------------------
  YS02001779              0.01      3.62      0  03:57       0.000     0.000
  
  
  **********************
  Storage Volume Summary
  **********************
  
  --------------------------------------------------------------------------------------------------
                         Average     Avg  Evap Exfil       Maximum     Max    Time of Max    Maximum
                          Volume    Pcnt  Pcnt  Pcnt        Volume    Pcnt     Occurrence    Outflow
  Storage Unit           1000 m3    Full  Loss  Loss       1000 m3    Full    days hr:min        LPS
  --------------------------------------------------------------------------------------------------
  JK-storage               0.006       2     0     0         0.151      52       0  00:00     600.00
  CC-storage               1.297       8     0     0         2.151      14       0  04:44     400.00
  XR-storage               0.441      48     0     0         0.793      86       0  06:35     379.98
  
  
  ***********************
  Outfall Loading Summary
  ***********************
  
  -----------------------------------------------------------
                         Flow       Avg       Max       Total
                         Freq      Flow      Flow      Volume
  Outfall Node           Pcnt       LPS       LPS    10^6 ltr
  -----------------------------------------------------------
  WSC                   99.99    625.60    889.24      15.414
  3                     89.92    209.03    503.01       3.656
  4                     43.21     55.39    113.71       0.582
  5                      0.00      0.00      0.00       0.000
  -----------------------------------------------------------
  System                58.28    890.02   1336.51      19.652
  
  
  ********************
  Link Flow Summary
  ********************
  
  -----------------------------------------------------------------------------
                                 Maximum  Time of Max   Maximum    Max/    Max/
                                  |Flow|   Occurrence   |Veloc|    Full    Full
  Link                 Type          LPS  days hr:min     m/sec    Flow   Depth
  -----------------------------------------------------------------------------
  WS02003066WSF200     CONDUIT    524.99     0  02:36      2.73    0.09    0.23
  WS02006287WS02006284 CONDUIT    252.55     0  02:16      1.74    0.12    0.24
  WS02006284WS02006280 CONDUIT    252.66     0  02:17      1.98    0.11    0.22
  WS02006280WS02006229 CONDUIT    252.66     0  02:17      3.18    0.05    0.16
  WS02006229WS02006228 CONDUIT    521.95     0  02:28      1.04    1.73    1.00
  WS02006256WS02006235 CONDUIT    166.25     0  00:01      2.58    1.76    1.00
  WS02006253WS02006251 CONDUIT     50.10     0  02:15      0.53    0.15    0.91
  WS02006252WS02006251 CONDUIT    400.44     0  05:40      3.19    1.47    1.00
  WS02006251WS02006249 CONDUIT    412.99     0  03:00      1.17    1.19    0.88
  WS02006249WS02006248 CONDUIT    354.33     0  07:41      1.16    1.94    0.84
  WS02006248WS02006247 CONDUIT    349.46     0  07:41      1.12    0.76    0.89
  WS02006247WS02006245 CONDUIT    346.55     0  07:41      1.08    2.75    0.93
  WS02006245WS02006243 CONDUIT    344.03     0  07:42      1.10    1.02    0.94
  WS02006243WS02006242 CONDUIT    339.12     0  07:42      1.00    0.72    0.99
  WS02006242WS02006240 CONDUIT    337.20     0  07:47      0.95    1.34    1.00
  WS02006240WS02006239 CONDUIT    336.74     0  07:50      1.00    1.06    1.00
  WS02006239WS02006238 CONDUIT    336.56     0  07:49      0.93    1.08    1.00
  WS02006238WS02006235 CONDUIT    336.53     0  07:49      1.25    0.75    1.00
  WS02006235WS02006234 CONDUIT    389.23     0  04:01      1.03    4.11    1.00
  WS02006234WS02006232 CONDUIT    388.00     0  04:02      1.13    0.78    1.00
  WS02006232WS02006231 CONDUIT    387.94     0  04:02      1.05    0.81    0.96
  WS02006231WS02006230 CONDUIT    386.80     0  04:02      1.32    5.87    0.90
  WS02006230WS02006229 CONDUIT    396.83     0  04:03      1.03    8.83    1.00
  WS02006228WS02006109 CONDUIT    521.95     0  02:28      1.04    2.28    1.00
  WS02006116WS02004401 CONDUIT    528.18     0  02:31      0.76    0.73    0.83
  WS02006115WS02006116 CONDUIT    529.17     0  02:31      0.85    0.68    0.75
  WS02006113WS02006111 CONDUIT    543.08     0  02:29      2.43    0.65    0.46
  WS02006112WS02006115 CONDUIT    531.46     0  02:31      0.74    0.31    0.87
  WS02006111WS02006112 CONDUIT    527.48     0  02:31      1.47    0.25    0.67
  WS02006110WS02006113 CONDUIT    523.39     0  02:28      1.24    0.48    0.78
  WS02006109WS02006110 CONDUIT    523.19     0  02:28      1.04    1.01    1.00
  WS02004411WS02004412 CONDUIT    525.20     0  02:35      0.91    0.75    0.69
  WS02004401WS02004402 CONDUIT    527.69     0  02:32      0.77    0.63    0.86
  WS02004413WS02003067 CONDUIT    524.89     0  02:36      1.10    0.22    0.59
  WS02004412WS02004413 CONDUIT    525.07     0  02:35      0.81    0.35    0.77
  WS02004410WS02004411 CONDUIT    525.57     0  02:35      0.93    0.72    0.68
  WS02004409WS02004410 CONDUIT    526.16     0  02:34      0.96    0.68    0.67
  WS02004407WS02004409 CONDUIT    527.08     0  02:33      1.46    0.19    0.48
  WS02004406WS02004407 CONDUIT    527.24     0  02:32      1.03    0.24    0.62
  WS02004405WS02004406 CONDUIT    527.47     0  02:32      0.68    1.04    0.95
  WS02004404WS02004405 CONDUIT    527.36     0  02:32      0.84    5.17    0.95
  WS02004403WS02004404 CONDUIT    527.24     0  02:32      0.74    0.38    0.92
  WS02004402WS02004403 CONDUIT    527.45     0  02:32      0.76    0.76    0.88
  WS02004139WS02001211 CONDUIT    374.83     0  02:20      0.81    0.47    0.59
  WS02004138WS02004139 CONDUIT    379.33     0  02:50      3.33    0.08    0.43
  WS02003067WS02003066 CONDUIT    524.96     0  02:36      1.19    0.17    0.41
  WS02001213WS02003059 CONDUIT    376.86     0  02:52      0.80    0.62    0.76
  WS02001212WS02001213 CONDUIT    377.08     0  02:51      1.31    0.58    0.46
  WS02001211WS02001212 CONDUIT    378.27     0  02:51      0.77    0.29    0.64
  WS02003072WS02003073 CONDUIT    887.74     0  02:54      1.69    1.92    0.47
  WS02003069WS02003072 CONDUIT    887.94     0  02:53      1.59    0.43    0.49
  WS02003060WS02003069 CONDUIT    887.95     0  02:52      1.84    0.35    0.44
  WS02003059WS02003060 CONDUIT    376.97     0  02:52      0.93    0.25    0.65
  HS02004901HS02004770 CONDUIT     12.85     0  02:13      0.05    0.05    0.35
  HS02004876HS02004881 CONDUIT     43.52     0  02:16      0.66    0.46    0.09
  HS02004870HS02004876 CONDUIT     34.62     0  02:17      0.46    0.02    0.11
  HS02004842HS02004848 CONDUIT      6.34     0  02:29      0.03    0.00    0.28
  HS02004837HS02004842 CONDUIT      6.57     0  02:29      0.41    0.00    0.30
  HS02004830HS02004837 CONDUIT     27.45     0  02:16      0.47    0.03    0.08
  HS02004824HS02004830 CONDUIT     27.59     0  02:17      0.51    0.04    0.08
  HS02004817HS02004824 CONDUIT     45.65     0  02:20      0.17    0.02    0.42
  HS02004770HS02004777 CONDUIT     65.39     0  02:13      0.26    0.12    0.36
  HS02004799HS02004480 CONDUIT    161.27     0  02:14      0.66    0.20    0.35
  HS02004792HS02004799 CONDUIT    147.41     0  02:14      0.76    0.09    0.28
  HS02004788HS02004792 CONDUIT     85.73     0  02:15      0.90    0.06    0.14
  HS02004785HS02004788 CONDUIT     64.99     0  02:15      0.57    0.49    0.16
  HS02004777HS02004785 CONDUIT     64.93     0  02:14      0.31    0.08    0.29
  HS02004480HS02004478 CONDUIT    190.45     0  02:15      1.05    0.80    0.26
  HS02004479HS02004480 CONDUIT     29.84     0  02:17      0.15    0.03    0.34
  HS02004862HS02004870 CONDUIT     25.36     0  02:17      0.51    0.03    0.07
  HS02004848HS02004852 CONDUIT     10.50     0  02:16      0.34    0.01    0.04
  HS02004856HS02004862 CONDUIT     17.33     0  02:17      0.38    0.02    0.07
  HS02004852HS02004856 CONDUIT     10.46     0  02:18      0.15    0.01    0.10
  HS02004802HS02004478 CONDUIT     64.13     0  02:20      0.33    0.06    0.28
  HS02004478WS02006287 CONDUIT    252.54     0  02:16      1.43    0.07    0.20
  HS02004817HS02004807 CONDUIT     46.98     0  02:21      0.13    0.03    0.54
  HS02004807HS02004802 CONDUIT     63.61     0  02:19      0.28    0.12    0.33
  YS02001759YS02001757 CONDUIT    257.13     0  02:58      0.33    0.18    1.00
  YS02001762YS02001759 CONDUIT    141.93     0  02:58      0.18    0.16    1.00
  YS02001765YS02001762 CONDUIT    141.10     0  02:58      0.23    0.13    1.00
  YS02001770YS02001767 CONDUIT    135.47     0  02:58      0.33    0.54    1.00
  YS02001774YS02001770 CONDUIT     51.84     0  03:57      0.14    0.03    1.00
  YS02001779YS02001774 CONDUIT     52.54     0  03:57      0.09    0.03    1.00
  YS02001649YS02001757 CONDUIT    384.22     0  02:55      0.49    0.23    1.00
  YS02001767YS02001765 CONDUIT    139.29     0  02:33      0.26    0.18    1.00
  YS02006561YS02001783 CONDUIT    406.77     0  02:50      1.91    0.21    0.44
  YS02001783YS02001784 CONDUIT    406.22     0  02:50      1.34    0.56    0.58
  YS02001784YS02001785 CONDUIT    407.28     0  02:50      1.44    0.95    0.55
  YS02001788YS02001790 CONDUIT    407.62     0  02:51      2.00    0.30    0.43
  YS02001790YS02001791 CONDUIT    407.56     0  02:51      2.32    0.44    0.38
  YS02001791YS02001793 CONDUIT    407.59     0  02:51      4.75    0.18    0.24
  YS02001910YS02001907 CONDUIT    128.92     0  03:00      0.49    0.07    0.80
  YS02001786YS02001788 CONDUIT    407.41     0  02:51      1.89    0.78    0.44
  YS02001915YS02001910 CONDUIT    128.38     0  03:01      0.44    0.06    0.59
  YS02001918YS02001915 CONDUIT     44.05     0  03:03      0.44    0.02    0.31
  YS02001923YS02001920 CONDUIT     39.79     0  03:01      0.50    0.02    0.16
  YS02001926YS02001923 CONDUIT     39.76     0  03:01      0.54    0.06    0.15
  YS02001929YS02001926 CONDUIT     39.78     0  03:01      0.58    0.02    0.14
  YS02001920YS02001918 CONDUIT     42.77     0  03:02      0.50    0.04    0.18
  YS02001629YS02163301 CONDUIT    113.12     0  02:38      0.15    0.14    1.00
  YS02001619YS02001622 CONDUIT    116.49     0  04:39      0.70    0.17    0.92
  YS02001622YS02001625 CONDUIT    172.64     0  04:38      0.28    0.09    0.97
  YS02001625YS02001629 CONDUIT    172.43     0  04:38      0.27    0.08    0.98
  YS02163301YS02001633 CONDUIT     97.34     0  02:44      0.12    0.09    1.00
  YS02163601YS02164001 CONDUIT    174.68     0  02:48      0.22    0.15    1.00
  YS02164001YS02001641 CONDUIT    178.06     0  02:47      0.23    0.24    1.00
  YS02001641YS02001644 CONDUIT    179.07     0  02:47      0.23    0.58    1.00
  YS02001647YS02001649 CONDUIT    293.07     0  02:53      0.37    0.15    1.00
  YS02006553YS02006556 CONDUIT    280.33     0  03:00      0.38    0.24    0.88
  YS02006556YS02006558 CONDUIT    281.58     0  03:00      0.38    0.22    0.91
  YSB6556YSB1171       CONDUIT     16.16     0  02:17      0.07    0.02    0.61
  YS02001907YS02006553 CONDUIT    279.29     0  03:00      0.31    0.33    0.99
  YS02006558YS02006561 CONDUIT    424.49     0  02:50      2.57    0.94    0.57
  YS02001633YS02163601 CONDUIT    176.78     0  02:52      0.23    0.19    1.00
  YS02001644YS02001647 CONDUIT    268.16     0  02:50      0.34    0.16    1.00
  YS02001745YS02001748 CONDUIT    162.69     0  05:28      1.48    0.06    0.48
  YS02001748YS02001751 CONDUIT    294.04     0  04:29      1.15    0.15    0.83
  YS02001751YS02001754 CONDUIT    143.95     0  03:02      1.01    0.07    1.00
  YS02001754YS02001757 CONDUIT    132.07     0  04:28      0.33    0.05    1.00
  YS02001882YS02001884 CONDUIT      4.84     0  02:06      0.06    0.01    0.53
  YS02001884YS02001887 CONDUIT     13.78     0  02:05      0.06    0.02    0.62
  YS02001890YS02001895 CONDUIT    152.51     0  02:42      0.32    0.07    0.59
  YS02001895YS02001898 CONDUIT    152.10     0  02:46      0.50    0.26    0.45
  YS02001898YS02001901 CONDUIT    152.18     0  02:42      0.36    0.10    0.53
  YS02001901YS02001904 CONDUIT    152.27     0  02:50      0.32    0.24    0.58
  YS02001904YS02001907 CONDUIT    152.76     0  02:50      0.24    0.05    0.74
  YS02001887YS02001890 CONDUIT    153.01     0  02:43      0.27    0.26    0.67
  YS02001652YS02001649 CONDUIT    143.85     0  03:04      0.35    0.07    1.00
  YS02001655YS02001652 CONDUIT    183.80     0  03:25      1.08    0.09    1.00
  YS02001658YS02001655 CONDUIT    238.44     0  04:53      1.33    0.10    0.84
  YS02001661YS02001658 CONDUIT    228.31     0  04:35      1.54    0.09    0.50
  YS02001664YS02001661 CONDUIT    108.99     0  02:43      1.24    0.03    0.26
  YSB1154YSB6556       CONDUIT     15.85     0  02:16      0.19    0.03    0.50
  YSB1174YSB1171       CONDUIT     14.63     0  02:10      0.06    0.02    0.61
  YSB1171HS02004479    CONDUIT     29.57     0  02:16      0.54    0.02    0.48
  HS02004881HS02006253 CONDUIT     48.65     0  02:16      1.81    0.01    0.24
  YS02001793JiankangQianchi CONDUIT    408.04     0  02:49     14.24    0.03    0.56
  YS02001757CaochengTiaoxuchi CONDUIT    686.36     0  03:00      1.45    0.30    0.89
  WSF200WS02003060     CONDUIT    525.09     0  02:36      1.71    0.12    0.33
  1                    CONDUIT    889.24     0  02:54      3.22    0.31    0.38
  2                    CONDUIT    113.71     0  03:00      5.02    0.27    0.36
  3                    CONDUIT    503.01     0  02:40      9.81    0.80    0.68
  4                    CONDUIT      0.00     0  00:00      0.00    0.00    0.00
  CC-Pump-1            PUMP       200.00     0  02:40              1.00
  CC-Pump-2            PUMP       200.00     0  02:20              1.00
  JK-Pump-1            PUMP       300.00     0  00:00              1.00
  JK-Pump-2            PUMP       300.00     0  02:40              1.00
  XR-Pump-1            PUMP        95.00     0  00:00              1.00
  XR-Pump-2            PUMP        95.00     0  00:40              1.00
  XR-Pump-3            PUMP        95.00     0  00:00              1.00
  XR-Pump-4            PUMP        95.00     0  00:00              1.00
  
  
  ***************************
  Flow Classification Summary
  ***************************
  
  -------------------------------------------------------------------------------------
                      Adjusted    ---------- Fraction of Time in Flow Class ---------- 
                       /Actual         Up    Down  Sub   Sup   Up    Down  Norm  Inlet 
  Conduit               Length    Dry  Dry   Dry   Crit  Crit  Crit  Crit  Ltd   Ctrl  
  -------------------------------------------------------------------------------------
  WS02003066WSF200        1.00   0.04  0.02  0.00  0.00  0.94  0.00  0.00  0.69  0.00
  WS02006287WS02006284    1.00   0.04  0.01  0.00  0.65  0.29  0.00  0.00  0.77  0.00
  WS02006284WS02006280    1.00   0.05  0.00  0.00  0.00  0.00  0.00  0.95  0.00  0.00
  WS02006280WS02006229    1.00   0.05  0.00  0.00  0.00  0.00  0.00  0.95  0.00  0.00
  WS02006229WS02006228    1.00   0.00  0.00  0.00  0.99  0.00  0.00  0.01  0.00  0.00
  WS02006256WS02006235    1.00   0.00  0.00  0.00  1.00  0.00  0.00  0.00  0.00  0.00
  WS02006253WS02006251    1.00   0.03  0.01  0.00  0.96  0.00  0.00  0.00  0.00  0.00
  WS02006252WS02006251    1.00   0.08  0.00  0.00  0.00  0.00  0.92  0.00  0.00  0.00
  WS02006251WS02006249    1.00   0.00  0.00  0.00  1.00  0.00  0.00  0.00  0.26  0.00
  WS02006249WS02006248    1.00   0.00  0.02  0.00  0.91  0.00  0.07  0.00  0.00  0.00
  WS02006248WS02006247    1.00   0.02  0.00  0.00  0.97  0.00  0.00  0.00  0.16  0.00
  WS02006247WS02006245    1.00   0.02  0.00  0.00  0.98  0.00  0.00  0.00  0.00  0.00
  WS02006245WS02006243    1.00   0.01  0.00  0.00  0.94  0.00  0.00  0.04  0.01  0.00
  WS02006243WS02006242    1.00   0.01  0.00  0.00  0.99  0.00  0.00  0.00  0.26  0.00
  WS02006242WS02006240    1.00   0.00  0.00  0.00  1.00  0.00  0.00  0.00  0.00  0.00
  WS02006240WS02006239    1.00   0.00  0.00  0.00  0.96  0.00  0.00  0.04  0.01  0.00
  WS02006239WS02006238    1.00   0.00  0.00  0.00  1.00  0.00  0.00  0.00  0.00  0.00
  WS02006238WS02006235    1.00   0.00  0.00  0.00  1.00  0.00  0.00  0.00  0.00  0.00
  WS02006235WS02006234    1.00   0.00  0.00  0.00  0.95  0.00  0.05  0.00  0.00  0.00
  WS02006234WS02006232    1.00   0.00  0.00  0.00  1.00  0.00  0.00  0.00  0.03  0.00
  WS02006232WS02006231    1.00   0.00  0.00  0.00  0.99  0.00  0.00  0.00  0.00  0.00
  WS02006231WS02006230    1.00   0.00  0.00  0.00  0.75  0.00  0.25  0.00  0.00  0.00
  WS02006230WS02006229    1.00   0.00  0.00  0.00  0.98  0.00  0.00  0.02  0.00  0.00
  WS02006228WS02006109    1.00   0.00  0.00  0.00  1.00  0.00  0.00  0.00  0.00  0.00
  WS02006116WS02004401    1.00   0.03  0.00  0.00  0.97  0.00  0.00  0.00  0.00  0.00
  WS02006115WS02006116    1.00   0.03  0.00  0.00  0.97  0.00  0.00  0.01  0.00  0.00
  WS02006113WS02006111    1.00   0.02  0.00  0.00  0.00  0.98  0.00  0.00  0.10  0.00
  WS02006112WS02006115    1.00   0.02  0.00  0.00  0.97  0.00  0.00  0.00  0.00  0.00
  WS02006111WS02006112    1.00   0.02  0.00  0.00  0.97  0.00  0.00  0.00  0.98  0.00
  WS02006110WS02006113    1.00   0.01  0.01  0.00  0.98  0.00  0.00  0.00  0.00  0.00
  WS02006109WS02006110    1.00   0.00  0.01  0.00  0.98  0.00  0.01  0.00  0.00  0.00
  WS02004411WS02004412    1.00   0.04  0.00  0.00  0.96  0.00  0.00  0.00  0.00  0.00
  WS02004401WS02004402    1.00   0.03  0.00  0.00  0.97  0.00  0.00  0.00  0.00  0.00
  WS02004413WS02003067    1.00   0.04  0.01  0.00  0.00  0.00  0.95  0.00  0.00  0.00
  WS02004412WS02004413    1.00   0.04  0.00  0.00  0.96  0.00  0.00  0.00  0.03  0.00
  WS02004410WS02004411    1.00   0.04  0.00  0.00  0.96  0.00  0.00  0.00  0.03  0.00
  WS02004409WS02004410    1.00   0.04  0.00  0.00  0.96  0.00  0.00  0.00  0.04  0.00
  WS02004407WS02004409    1.00   0.04  0.00  0.00  0.96  0.00  0.00  0.00  0.89  0.00
  WS02004406WS02004407    1.00   0.00  0.04  0.00  0.96  0.00  0.00  0.00  0.00  0.00
  WS02004405WS02004406    1.00   0.00  0.00  0.00  1.00  0.00  0.00  0.00  0.00  0.00
  WS02004404WS02004405    1.00   0.00  0.00  0.00  1.00  0.00  0.00  0.00  0.00  0.00
  WS02004403WS02004404    1.00   0.00  0.03  0.00  0.97  0.00  0.00  0.00  0.01  0.00
  WS02004402WS02004403    1.00   0.03  0.00  0.00  0.97  0.00  0.00  0.00  0.00  0.00
  WS02004139WS02001211    1.00   0.00  0.00  0.00  1.00  0.00  0.00  0.00  0.00  0.00
  WS02004138WS02004139    1.00   0.00  0.00  0.00  0.99  0.01  0.00  0.00  1.00  0.00
  WS02003067WS02003066    1.00   0.05  0.00  0.00  0.94  0.00  0.00  0.00  0.00  0.00
  WS02001213WS02003059    1.00   0.00  0.00  0.00  0.99  0.00  0.00  0.00  0.00  0.00
  WS02001212WS02001213    1.00   0.00  0.00  0.00  0.89  0.00  0.11  0.00  0.00  0.00
  WS02001211WS02001212    1.00   0.00  0.00  0.00  1.00  0.00  0.00  0.00  0.00  0.00
  WS02003072WS02003073    1.00   0.00  0.00  0.00  0.00  0.00  0.00  1.00  0.00  0.00
  WS02003069WS02003072    1.00   0.00  0.00  0.00  0.99  0.01  0.00  0.00  0.22  0.00
  WS02003060WS02003069    1.00   0.00  0.00  0.00  0.98  0.02  0.00  0.00  0.10  0.00
  WS02003059WS02003060    1.00   0.00  0.00  0.00  1.00  0.00  0.00  0.00  0.01  0.00
  HS02004901HS02004770    1.00   0.04  0.00  0.00  0.95  0.00  0.00  0.00  0.02  0.00
  HS02004876HS02004881    1.00   0.02  0.00  0.00  0.98  0.00  0.00  0.00  0.00  0.00
  HS02004870HS02004876    1.00   0.01  0.00  0.00  0.99  0.00  0.00  0.00  0.95  0.00
  HS02004842HS02004848    1.00   0.00  0.05  0.00  0.95  0.00  0.00  0.00  0.68  0.00
  HS02004837HS02004842    1.00   0.00  0.00  0.00  0.99  0.01  0.00  0.00  0.11  0.00
  HS02004830HS02004837    1.00   0.00  0.00  0.00  1.00  0.00  0.00  0.00  0.99  0.00
  HS02004824HS02004830    1.00   0.00  0.00  0.00  1.00  0.00  0.00  0.00  0.00  0.00
  HS02004817HS02004824    1.00   0.00  0.00  0.00  1.00  0.00  0.00  0.00  1.00  0.00
  HS02004770HS02004777    1.00   0.00  0.05  0.00  0.95  0.00  0.00  0.00  0.07  0.00
  HS02004799HS02004480    1.00   0.00  0.03  0.00  0.94  0.00  0.03  0.00  0.00  0.00
  HS02004792HS02004799    1.00   0.00  0.00  0.00  0.99  0.01  0.00  0.00  0.98  0.00
  HS02004788HS02004792    1.00   0.00  0.00  0.00  0.99  0.01  0.00  0.00  0.98  0.00
  HS02004785HS02004788    1.00   0.00  0.00  0.00  1.00  0.00  0.00  0.00  0.00  0.00
  HS02004777HS02004785    1.00   0.00  0.00  0.00  1.00  0.00  0.00  0.00  0.20  0.00
  HS02004480HS02004478    1.00   0.05  0.00  0.00  0.71  0.00  0.00  0.24  0.00  0.00
  HS02004479HS02004480    1.00   0.03  0.00  0.00  0.97  0.00  0.00  0.00  0.16  0.00
  HS02004862HS02004870    1.00   0.00  0.00  0.00  1.00  0.00  0.00  0.00  0.06  0.00
  HS02004848HS02004852    1.00   0.05  0.00  0.00  0.95  0.00  0.00  0.00  0.71  0.00
  HS02004856HS02004862    1.00   0.00  0.07  0.00  0.93  0.00  0.00  0.00  0.74  0.00
  HS02004852HS02004856    1.00   0.05  0.01  0.00  0.95  0.00  0.00  0.00  0.83  0.00
  HS02004802HS02004478    1.00   0.05  0.01  0.00  0.95  0.00  0.00  0.00  0.01  0.00
  HS02004478WS02006287    1.00   0.05  0.00  0.00  0.85  0.10  0.00  0.00  0.75  0.00
  HS02004817HS02004807    1.00   0.00  0.05  0.00  0.95  0.00  0.00  0.00  0.00  0.00
  HS02004807HS02004802    1.00   0.05  0.00  0.00  0.95  0.00  0.00  0.00  0.01  0.00
  YS02001759YS02001757    1.00   0.00  0.00  0.00  1.00  0.00  0.00  0.00  0.17  0.00
  YS02001762YS02001759    1.00   0.00  0.00  0.00  1.00  0.00  0.00  0.00  0.04  0.00
  YS02001765YS02001762    1.00   0.00  0.00  0.00  1.00  0.00  0.00  0.00  0.22  0.00
  YS02001770YS02001767    1.00   0.00  0.00  0.00  1.00  0.00  0.00  0.00  0.00  0.00
  YS02001774YS02001770    1.00   0.00  0.05  0.00  0.95  0.00  0.00  0.00  0.06  0.00
  YS02001779YS02001774    1.00   0.00  0.00  0.00  1.00  0.00  0.00  0.00  0.26  0.00
  YS02001649YS02001757    1.00   0.00  0.00  0.00  1.00  0.00  0.00  0.00  0.19  0.00
  YS02001767YS02001765    1.00   0.00  0.00  0.00  1.00  0.00  0.00  0.00  0.01  0.00
  YS02006561YS02001783    1.00   0.07  0.00  0.00  0.00  0.93  0.00  0.00  0.64  0.00
  YS02001783YS02001784    1.00   0.00  0.07  0.00  0.93  0.00  0.00  0.00  0.00  0.00
  YS02001784YS02001785    1.00   0.00  0.00  0.00  1.00  0.00  0.00  0.00  0.25  0.00
  YS02001788YS02001790    1.00   0.00  0.00  0.00  0.07  0.93  0.00  0.00  0.72  0.00
  YS02001790YS02001791    1.00   0.00  0.00  0.00  0.02  0.98  0.00  0.00  0.60  0.00
  YS02001791YS02001793    1.00   0.00  0.00  0.00  0.00  1.00  0.00  0.00  0.00  0.00
  YS02001910YS02001907    1.00   0.00  0.00  0.00  0.97  0.00  0.00  0.03  0.13  0.00
  YS02001786YS02001788    1.00   0.00  0.00  0.00  0.07  0.93  0.00  0.00  0.00  0.00
  YS02001915YS02001910    1.00   0.00  0.00  0.00  0.99  0.01  0.00  0.00  0.24  0.00
  YS02001918YS02001915    1.00   0.00  0.01  0.00  0.98  0.01  0.00  0.00  0.72  0.00
  YS02001923YS02001920    1.00   0.00  0.00  0.00  1.00  0.00  0.00  0.00  1.00  0.00
  YS02001926YS02001923    1.00   0.00  0.03  0.00  0.00  0.00  0.97  0.00  0.00  0.00
  YS02001929YS02001926    1.00   0.00  0.05  0.00  0.95  0.00  0.00  0.00  0.87  0.00
  YS02001920YS02001918    1.00   0.00  0.01  0.00  0.99  0.00  0.00  0.00  0.00  0.00
  YS02001629YS02163301    1.00   0.06  0.00  0.00  0.94  0.00  0.00  0.00  0.00  0.00
  YS02001619YS02001622    1.00   0.04  0.00  0.00  0.96  0.00  0.00  0.00  0.00  0.00
  YS02001622YS02001625    1.00   0.05  0.00  0.00  0.95  0.00  0.00  0.00  0.12  0.00
  YS02001625YS02001629    1.00   0.05  0.02  0.00  0.92  0.00  0.01  0.00  0.00  0.00
  YS02163301YS02001633    1.00   0.00  0.06  0.00  0.94  0.00  0.00  0.00  0.00  0.00
  YS02163601YS02164001    1.00   0.00  0.04  0.00  0.96  0.00  0.00  0.00  0.00  0.00
  YS02164001YS02001641    1.00   0.01  0.03  0.00  0.96  0.00  0.00  0.00  0.07  0.00
  YS02001641YS02001644    1.00   0.00  0.01  0.00  0.99  0.00  0.00  0.00  0.00  0.00
  YS02001647YS02001649    1.00   0.00  0.07  0.00  0.93  0.00  0.00  0.00  0.01  0.00
  YS02006553YS02006556    1.00   0.01  0.00  0.00  0.99  0.00  0.00  0.00  0.03  0.00
  YS02006556YS02006558    1.00   0.00  0.00  0.00  1.00  0.00  0.00  0.00  0.00  0.00
  YSB6556YSB1171          1.00   0.03  0.02  0.00  0.96  0.00  0.00  0.00  0.00  0.00
  YS02001907YS02006553    1.00   0.00  0.02  0.00  0.97  0.00  0.00  0.00  0.00  0.00
  YS02006558YS02006561    1.00   0.07  0.00  0.00  0.00  0.93  0.00  0.00  0.64  0.00
  YS02001633YS02163601    1.00   0.00  0.01  0.00  0.99  0.00  0.00  0.00  0.20  0.00
  YS02001644YS02001647    1.00   0.00  0.07  0.00  0.93  0.00  0.00  0.00  0.00  0.00
  YS02001745YS02001748    1.00   0.00  0.00  0.00  0.88  0.01  0.00  0.11  0.40  0.00
  YS02001748YS02001751    1.00   0.00  0.00  0.00  0.98  0.02  0.00  0.00  0.23  0.00
  YS02001751YS02001754    1.00   0.00  0.00  0.00  0.93  0.00  0.00  0.07  0.01  0.00
  YS02001754YS02001757    1.00   0.00  0.00  0.00  0.99  0.01  0.00  0.00  0.26  0.00
  YS02001882YS02001884    1.00   0.06  0.00  0.00  0.94  0.00  0.00  0.00  0.00  0.00
  YS02001884YS02001887    1.00   0.03  0.01  0.00  0.96  0.00  0.00  0.00  0.00  0.00
  YS02001890YS02001895    1.00   0.00  0.06  0.00  0.94  0.00  0.00  0.00  0.00  0.00
  YS02001895YS02001898    1.00   0.06  0.00  0.00  0.93  0.00  0.01  0.00  0.00  0.00
  YS02001898YS02001901    1.00   0.06  0.00  0.00  0.94  0.00  0.00  0.00  0.02  0.00
  YS02001901YS02001904    1.00   0.06  0.00  0.00  0.94  0.00  0.00  0.00  0.00  0.00
  YS02001904YS02001907    1.00   0.00  0.06  0.00  0.94  0.00  0.00  0.00  0.00  0.00
  YS02001887YS02001890    1.00   0.00  0.00  0.00  0.97  0.00  0.02  0.00  0.00  0.00
  YS02001652YS02001649    1.00   0.00  0.00  0.00  1.00  0.00  0.00  0.00  0.25  0.00
  YS02001655YS02001652    1.00   0.00  0.00  0.00  0.93  0.00  0.00  0.07  0.02  0.00
  YS02001658YS02001655    1.00   0.00  0.05  0.00  0.92  0.02  0.00  0.00  0.09  0.00
  YS02001661YS02001658    1.00   0.05  0.00  0.00  0.88  0.07  0.00  0.00  0.33  0.00
  YS02001664YS02001661    1.00   0.04  0.00  0.00  0.69  0.27  0.00  0.00  0.86  0.00
  YSB1154YSB6556          1.00   0.04  0.00  0.00  0.96  0.00  0.00  0.00  0.02  0.00
  YSB1174YSB1171          1.00   0.03  0.01  0.00  0.96  0.00  0.00  0.00  0.00  0.00
  YSB1171HS02004479       1.00   0.03  0.00  0.00  0.97  0.00  0.00  0.00  0.13  0.00
  HS02004881HS02006253    1.00   0.03  0.00  0.00  0.84  0.01  0.00  0.12  0.64  0.00
  YS02001793JiankangQianchi    1.00   0.00  0.00  0.00  0.09  0.91  0.00  0.00  0.12  0.00
  YS02001757CaochengTiaoxuchi    1.00   0.00  0.08  0.00  0.92  0.00  0.00  0.00  0.00  0.00
  WSF200WS02003060        1.00   0.00  0.04  0.00  0.75  0.22  0.00  0.00  0.29  0.00
  1                       1.00   0.00  0.00  0.00  0.00  1.00  0.00  0.00  0.33  0.00
  2                       1.00   0.56  0.00  0.00  0.00  0.44  0.00  0.00  0.09  0.00
  3                       1.00   0.10  0.00  0.00  0.00  0.90  0.00  0.00  0.32  0.00
  4                       1.00   1.00  0.00  0.00  0.00  0.00  0.00  0.00  0.00  0.00
  
  
  *************************
  Conduit Surcharge Summary
  *************************
  
  ----------------------------------------------------------------------------
                                                           Hours        Hours 
                         --------- Hours Full --------   Above Full   Capacity
  Conduit                Both Ends  Upstream  Dnstream   Normal Flow   Limited
  ----------------------------------------------------------------------------
  WS02006229WS02006228        2.69      2.96      2.69      4.84         2.69
  WS02006256WS02006235        5.73      5.74      7.69      2.33         0.01
  WS02006252WS02006251        1.88      1.88      2.86      2.61         0.01
  WS02006251WS02006249        0.01      0.01      0.01      1.89         0.01
  WS02006249WS02006248        0.01      0.01      0.01      4.78         0.01
  WS02006247WS02006245        0.01      0.01      0.01      5.03         0.01
  WS02006245WS02006243        0.01      0.01      0.01      0.09         0.01
  WS02006243WS02006242        0.01      0.01      1.71      0.01         0.01
  WS02006242WS02006240        0.06      0.06      2.31      2.87         0.01
  WS02006240WS02006239        0.13      0.13      0.22      0.18         0.01
  WS02006239WS02006238        2.28      2.28      2.56      0.30         0.12
  WS02006238WS02006235        2.36      2.36      2.93      0.01         0.01
  WS02006235WS02006234        0.04      0.04      1.98      5.75         0.01
  WS02006234WS02006232        0.45      0.45      3.03      0.01         0.01
  WS02006232WS02006231        0.01      0.01      3.03      0.01         0.01
  WS02006231WS02006230        0.01      0.01      0.01      5.75         0.01
  WS02006230WS02006229        3.95      4.69      3.95      5.85         3.95
  WS02006228WS02006109        2.84      3.40      2.84      5.35         2.84
  WS02006112WS02006115        0.01      0.01      0.39      0.01         0.01
  WS02006111WS02006112        0.01      0.01      4.88      0.01         0.01
  WS02006110WS02006113        0.01      0.01      3.17      0.01         0.01
  WS02006109WS02006110        0.10      0.10      3.41      0.10         0.01
  WS02004405WS02004406        0.01      0.01      0.01      0.28         0.01
  WS02004404WS02004405        0.01      0.01      0.01      5.65         0.01
  WS02003072WS02003073        0.01      0.01      0.01      5.36         0.01
  YS02001759YS02001757        5.29      5.29      5.43      0.01         0.01
  YS02001762YS02001759        5.15      5.15      5.29      0.01         0.02
  YS02001765YS02001762        4.45      4.45      5.15      0.01         0.01
  YS02001770YS02001767        4.24      4.24      4.26      0.01         0.78
  YS02001774YS02001770        4.05      4.05      4.65      0.01         0.01
  YS02001779YS02001774        1.23      1.23      4.65      0.01         0.01
  YS02001649YS02001757        5.19      5.19      5.43      0.01         0.01
  YS02001767YS02001765        4.26      4.26      4.45      0.01         0.02
  YS02001629YS02163301        3.92      3.92      4.14      0.01         0.01
  YS02001622YS02001625        0.01      0.01      2.47      0.01         0.01
  YS02001625YS02001629        0.01      0.01      2.47      0.01         0.01
  YS02163301YS02001633        4.14      4.14      4.45      0.01         0.01
  YS02163601YS02164001        4.44      4.44      5.16      0.01         0.01
  YS02164001YS02001641        4.44      4.44      4.53      0.01         0.01
  YS02001641YS02001644        4.52      4.53      4.55      0.01         0.47
  YS02001647YS02001649        2.35      2.35      5.19      0.01         0.01
  YS02001907YS02006553        0.01      0.01      0.52      0.01         0.01
  YS02001633YS02163601        4.36      4.36      5.16      0.01         0.01
  YS02001644YS02001647        2.35      2.35      4.55      0.01         0.01
  YS02001748YS02001751        0.01      0.01      0.01      0.01         0.01
  YS02001751YS02001754        0.01      0.01      1.64      0.01         0.01
  YS02001754YS02001757        2.37      2.37      5.43      0.01         0.01
  YS02001652YS02001649        2.71      2.71      5.19      0.01         0.01
  YS02001655YS02001652        0.03      0.03      2.17      0.01         0.01
  YS02001658YS02001655        0.01      0.01      0.03      0.01         0.01
  YS02001793JiankangQianchi        0.01      0.01      0.27      0.01         0.01
  YS02001757CaochengTiaoxuchi        0.01      0.01      5.43      0.01         0.01
  
  
  ***************
  Pumping Summary
  ***************
  
  ---------------------------------------------------------------------------------------------------------
                                                  Min       Avg       Max     Total     Power    % Time Off
                        Percent   Number of      Flow      Flow      Flow    Volume     Usage    Pump Curve
  Pump                 Utilized   Start-Ups       LPS       LPS       LPS  10^6 ltr     Kw-hr    Low   High
  ---------------------------------------------------------------------------------------------------------
  CC-Pump-1               62.86           5      0.00    159.36    200.00     2.831      9.25    0.0   12.4
  CC-Pump-2               62.87           5      0.00    141.38    200.00     2.556      8.43    0.0   12.4
  JK-Pump-1               91.50           4      0.00    164.58    300.00     3.063     58.85    0.0    0.0
  JK-Pump-2               89.35           7      0.00    136.87    300.00     2.523     49.35    0.0    0.0
  XR-Pump-1               91.48           7      0.00     68.21     95.00     1.796     29.27    0.0    0.0
  XR-Pump-2               85.09           7      0.00     69.99     95.00     1.681     27.08    0.0    0.0
  XR-Pump-3               97.87           4      0.00     76.39     95.00     2.166     37.27    0.0    0.0
  XR-Pump-4               89.34          10      0.00     63.90     95.00     1.653     27.63    0.0    0.0
  

  Analysis begun on:  Tue Dec 21 15:10:54 2021
  Analysis ended on:  Tue Dec 21 15:10:57 2021
  Total elapsed time: 00:00:03