
  EPA STORM WATER MANAGEMENT MODEL - VERSION 5.1 (Build 5.3.0.dev0)
  --------------------------------------------------------------

  WARNING 04: minimum elevation drop used for Conduit WS02004404WS02004405
  WARNING 03: negative offset ignored for Link YS02001904YS02001907
  
  *********************************************************
  NOTE: The summary statistics displayed in this report are
  based on results found at every computational time step,  
  not just on results from each reporting time step.
  *********************************************************
  
  ****************
  Analysis Options
  ****************
  Flow Units ............... LPS
  Process Models:
    Rainfall/Runoff ........ YES
    RDII ................... NO
    Snowmelt ............... NO
    Groundwater ............ NO
    Flow Routing ........... YES
    Ponding Allowed ........ NO
    Water Quality .......... NO
  Infiltration Method ...... HORTON
  Flow Routing Method ...... DYNWAVE
  Surcharge Method ......... EXTRAN
  Starting Date ............ 08/28/2015 08:00:00
  Ending Date .............. 08/28/2015 15:50:00
  Antecedent Dry Days ...... 8.0
  Report Time Step ......... 00:01:00
  Wet Time Step ............ 00:01:00
  Dry Time Step ............ 00:01:00
  Routing Time Step ........ 5.00 sec
  Variable Time Step ....... YES
  Maximum Trials ........... 8
  Number of Threads ........ 4
  Head Tolerance ........... 0.001500 m
  
  
  **************************        Volume         Depth
  Runoff Quantity Continuity     hectare-m            mm
  **************************     ---------       -------
  Total Precipitation ......         2.730         5.977
  Evaporation Loss .........         0.000         0.000
  Infiltration Loss ........         0.686         1.502
  Surface Runoff ...........         1.157         2.533
  Final Storage ............         0.888         1.943
  Continuity Error (%) .....        -0.018
  
  
  **************************        Volume        Volume
  Flow Routing Continuity        hectare-m      10^6 ltr
  **************************     ---------     ---------
  Dry Weather Inflow .......         0.616         6.165
  Wet Weather Inflow .......         1.156        11.561
  Groundwater Inflow .......         0.000         0.000
  RDII Inflow ..............         0.000         0.000
  External Inflow ..........         0.102         1.024
  External Outflow .........         1.731        17.309
  Flooding Loss ............         0.000         0.001
  Evaporation Loss .........         0.000         0.000
  Exfiltration Loss ........         0.000         0.000
  Initial Stored Volume ....         0.076         0.761
  Final Stored Volume ......         0.325         3.249
  Continuity Error (%) .....        -5.378
  
  
  *************************
  Highest Continuity Errors
  *************************
  Node HS02004842 (28.20%)
  Node JK-storage (-28.06%)
  Node YS02001884 (22.63%)
  Node YS02001774 (13.48%)
  Node YSB1171 (6.87%)
  
  
  ***************************
  Time-Step Critical Elements
  ***************************
  Link 3 (42.50%)
  Link WS02006252WS02006251 (42.20%)
  Link WS02006238WS02006235 (7.51%)
  Link WS02006280WS02006229 (1.87%)
  Link WS02006229WS02006228 (1.55%)
  
  
  ********************************
  Highest Flow Instability Indexes
  ********************************
  Link WS02006113WS02006111 (42)
  Link WS02006111WS02006112 (23)
  Link YS02006558YS02006561 (13)
  Link WS02006252WS02006251 (6)
  Link YS02001644YS02001647 (5)
  
  
  *************************
  Routing Time Step Summary
  *************************
  Minimum Time Step           :     0.11 sec
  Average Time Step           :     0.91 sec
  Maximum Time Step           :     5.00 sec
  Percent in Steady State     :    -0.00
  Average Iterations per Step :     2.61
  Percent Not Converging      :     7.59
  
  
  ***************************
  Subcatchment Runoff Summary
  ***************************
  
  ------------------------------------------------------------------------------------------------------------------------------
                            Total      Total      Total      Total     Imperv       Perv      Total       Total     Peak  Runoff
                           Precip      Runon       Evap      Infil     Runoff     Runoff     Runoff      Runoff   Runoff   Coeff
  Subcatchment                 mm         mm         mm         mm         mm         mm         mm    10^6 ltr      LPS
  ------------------------------------------------------------------------------------------------------------------------------
  sub0                       5.98       0.00       0.00       0.42       4.29       0.00       4.29        0.00     1.44   0.718
  sub1                       5.98       0.00       0.00       0.66       4.06       0.00       4.06        0.03     7.56   0.680
  sub2                       5.98       0.00       0.00       2.21       2.86       0.00       2.86        0.03     6.69   0.478
  sub3                       5.98       0.00       0.00       2.21       2.82       0.00       2.82        0.06    13.77   0.473
  sub4                       5.98       0.00       0.00       0.66       3.93       0.00       3.93        0.08    15.47   0.657
  sub5                       5.98       0.00       0.00       0.42       4.25       0.00       4.25        0.05    13.44   0.711
  sub7                       5.98       0.00       0.00       0.54       4.18       0.00       4.18        0.01     4.74   0.700
  sub8                       5.98       0.00       0.00       0.54       4.18       0.00       4.18        0.03     8.36   0.699
  sub9                       5.98       0.00       0.00       0.54       4.17       0.00       4.17        0.02     6.20   0.698
  sub10                      5.98       0.00       0.00       0.48       4.21       0.00       4.21        0.05    13.42   0.704
  sub11                      5.98       0.00       0.00       0.48       4.22       0.00       4.22        0.05    15.74   0.707
  sub12                      5.98       0.00       0.00       0.78       4.01       0.00       4.01        0.04    13.33   0.671
  sub14                      5.98       0.00       0.00       0.54       4.17       0.00       4.17        0.04    12.12   0.698
  sub15                      5.98       0.00       0.00       1.79       3.21       0.00       3.21        0.06    16.44   0.536
  sub16                      5.98       0.00       0.00       1.97       3.09       0.00       3.09        0.03    11.72   0.516
  sub17                      5.98       0.00       0.00       1.91       3.13       0.00       3.13        0.03     9.46   0.524
  sub22                      5.98       0.00       0.00       2.57       2.62       0.00       2.62        0.17    53.85   0.438
  sub23                      5.98       0.00       0.00       2.21       2.90       0.00       2.90        0.14    45.85   0.484
  sub60                      5.98       0.00       0.00       0.72       2.82       0.00       2.82        0.86    79.65   0.472
  sub61                      5.98       0.00       0.00       1.02       3.02       0.00       3.02        0.93    99.61   0.505
  sub62                      5.98       0.00       0.00       0.48       3.23       0.00       3.23        0.99   101.90   0.541
  sub63                      5.98       0.00       0.00       1.73       2.69       0.00       2.69        0.81    92.85   0.450
  sub64                      5.98       0.00       0.00       0.90       2.70       0.00       2.70        0.82    75.64   0.451
  sub65                      5.98       0.00       0.00       0.78       2.73       0.00       2.73        0.84    76.74   0.457
  sub66                      5.98       0.00       0.00       1.73       2.35       0.00       2.35        0.72    69.31   0.394
  sub67                      5.98       0.00       0.00       0.48       3.56       0.00       3.56        1.10   130.42   0.595
  sub68                      5.98       0.00       0.00       0.84       3.21       0.00       3.21        0.99   110.04   0.537
  sub69                      5.98       0.00       0.00       0.90       3.46       0.00       3.46        0.81   108.95   0.580
  sub70                      5.98       3.54       0.00       3.23       4.25       0.00       4.25        0.97    88.31   0.447
  sub71                      5.98       0.00       0.00       0.48       3.09       0.00       3.09        0.73    71.22   0.518
  sub72                      5.98       0.00       0.00       0.42       2.18       0.00       2.18        0.44    33.53   0.365
  sub73                      5.98       4.14       0.00       3.44       4.33       0.00       4.33        1.02    75.82   0.428
  sub74                      5.98       0.00       0.00       4.48       1.04       0.00       1.04        0.42    60.72   0.175
  
  
  ******************
  Node Depth Summary
  ******************
  
  ---------------------------------------------------------------------------------
                                 Average  Maximum  Maximum  Time of Max    Reported
                                   Depth    Depth      HGL   Occurrence   Max Depth
  Node                 Type       Meters   Meters   Meters  days hr:min      Meters
  ---------------------------------------------------------------------------------
  WS02001211           JUNCTION     0.66     0.78     5.62     0  03:17        0.78
  WS02001212           JUNCTION     0.38     0.49     5.55     0  03:16        0.49
  WS02001213           JUNCTION     0.61     0.73     5.49     0  03:15        0.73
  WS02003069           JUNCTION     0.43     0.53     5.12     0  03:14        0.53
  WS02003072           JUNCTION     0.50     0.60     4.97     0  03:15        0.60
  WS02003073           JUNCTION     0.30     0.36     4.43     0  03:15        0.36
  WS02003060           JUNCTION     0.39     0.47     5.40     0  03:14        0.47
  WS02003066           JUNCTION     0.23     0.29     5.84     0  02:35        0.29
  WS02003059           JUNCTION     0.67     0.78     5.47     0  03:15        0.78
  WS02003067           JUNCTION     0.57     0.68     6.00     0  02:34        0.68
  WS02004401           JUNCTION     0.67     0.83     6.83     0  02:31        0.83
  WS02004402           JUNCTION     0.70     0.85     6.81     0  02:31        0.85
  WS02004403           JUNCTION     0.72     0.87     6.80     0  02:32        0.87
  WS02004404           JUNCTION     0.79     0.94     6.79     0  02:32        0.94
  WS02004406           JUNCTION     0.80     0.94     6.77     0  02:32        0.94
  WS02004409           JUNCTION     0.49     0.64     6.41     0  02:34        0.64
  WS02004410           JUNCTION     0.51     0.65     6.37     0  02:34        0.65
  WS02004411           JUNCTION     0.52     0.66     6.34     0  02:34        0.66
  WS02004412           JUNCTION     0.54     0.67     6.31     0  02:34        0.67
  WS02004413           JUNCTION     0.69     0.84     6.31     0  02:34        0.84
  WS02004405           JUNCTION     0.79     0.94     6.79     0  02:32        0.94
  WS02006109           JUNCTION     0.75     0.95     7.57     0  02:27        0.95
  WS02006110           JUNCTION     0.74     0.91     7.49     0  02:27        0.91
  WS02006111           JUNCTION     0.22     0.28     6.99     0  02:27        0.28
  WS02006112           JUNCTION     0.84     1.02     6.90     0  02:30        1.01
  WS02006113           JUNCTION     0.34     0.45     7.34     0  02:27        0.45
  WS02006115           JUNCTION     0.56     0.72     6.86     0  02:31        0.72
  WS02006116           JUNCTION     0.64     0.80     6.84     0  02:31        0.80
  WS02006230           JUNCTION     0.72     0.98     7.73     0  02:26        0.98
  WS02006231           JUNCTION     0.47     0.65     7.77     0  02:27        0.65
  WS02006232           JUNCTION     0.61     0.77     7.81     0  02:26        0.77
  WS02006234           JUNCTION     0.53     0.70     7.86     0  02:26        0.70
  WS02006235           JUNCTION     0.57     0.73     7.89     0  04:05        0.73
  WS02006238           JUNCTION     0.59     0.76     7.90     0  04:05        0.76
  WS02006240           JUNCTION     0.49     0.69     7.99     0  03:57        0.69
  WS02006242           JUNCTION     0.54     0.77     8.04     0  03:57        0.76
  WS02006243           JUNCTION     0.43     0.66     8.08     0  03:57        0.66
  WS02006245           JUNCTION     0.41     0.63     8.11     0  04:06        0.63
  WS02006247           JUNCTION     0.42     0.64     8.14     0  04:06        0.64
  WS02006248           JUNCTION     0.37     0.58     8.17     0  04:06        0.58
  WS02006249           JUNCTION     0.40     0.60     8.20     0  03:58        0.60
  WS02006239           JUNCTION     0.55     0.74     7.95     0  03:57        0.74
  WS02006251           JUNCTION     0.40     0.62     8.29     0  03:59        0.62
  WS02006252           JUNCTION     0.36     0.59     8.83     0  03:56        0.59
  WS02006253           JUNCTION     0.42     0.65     8.29     0  03:59        0.65
  WS02006256           JUNCTION     1.03     2.35     9.28     0  00:00        1.20
  WS02004138           JUNCTION     0.15     0.19     7.44     0  00:20        0.19
  WS02004407           JUNCTION     0.22     0.29     6.60     0  02:32        0.29
  WS02006228           JUNCTION     0.74     0.99     7.64     0  02:27        0.99
  WS02006229           JUNCTION     0.72     0.98     7.68     0  02:27        0.98
  WS02006280           JUNCTION     0.06     0.15     8.42     0  02:18        0.15
  WS02006284           JUNCTION     0.35     0.48     8.88     0  02:18        0.48
  WS02006287           JUNCTION     0.08     0.21     9.17     0  02:18        0.21
  WSF200               JUNCTION     0.22     0.29     5.52     0  02:35        0.29
  HS02004901           JUNCTION     0.11     0.23    10.05     0  02:16        0.23
  HS02004881           JUNCTION     0.01     0.02     9.05     0  02:17        0.02
  HS02004876           JUNCTION     0.04     0.10     9.13     0  02:16        0.10
  HS02004870           JUNCTION     0.01     0.04     9.33     0  02:18        0.04
  HS02004862           JUNCTION     0.01     0.05     9.43     0  02:19        0.05
  HS02004856           JUNCTION     0.07     0.10     9.53     0  02:18        0.10
  HS02004852           JUNCTION     0.01     0.03     9.54     0  02:20        0.03
  HS02004848           JUNCTION     0.01     0.03     9.63     0  02:18        0.03
  HS02004842           JUNCTION     0.33     0.36     9.63     0  02:18        0.36
  HS02004837           JUNCTION     0.03     0.05     9.63     0  02:18        0.05
  HS02004830           JUNCTION     0.04     0.06     9.53     0  02:18        0.06
  HS02004824           JUNCTION     0.02     0.04     9.44     0  02:21        0.04
  HS02004817           JUNCTION     0.42     0.53     9.37     0  02:19        0.53
  HS02004807           JUNCTION     0.11     0.20     9.37     0  02:19        0.20
  HS02004802           JUNCTION     0.15     0.24     9.37     0  02:18        0.24
  HS02004799           JUNCTION     0.10     0.26     9.47     0  02:16        0.26
  HS02004792           JUNCTION     0.02     0.10     9.62     0  02:16        0.10
  HS02004788           JUNCTION     0.02     0.07     9.97     0  02:17        0.07
  HS02004785           JUNCTION     0.04     0.14    10.04     0  02:16        0.14
  HS02004777           JUNCTION     0.13     0.25    10.05     0  02:16        0.25
  HS02004770           JUNCTION     0.10     0.22    10.05     0  02:16        0.22
  HS02004480           JUNCTION     0.06     0.20     9.44     0  02:17        0.20
  HS02004479           JUNCTION     0.10     0.24     9.44     0  02:17        0.24
  HS02004478           JUNCTION     0.05     0.13     9.36     0  02:18        0.13
  YS02001745           JUNCTION     0.09     0.21     7.73     0  04:45        0.20
  YS02001748           JUNCTION     0.41     0.62     7.70     0  03:48        0.62
  YS02001751           JUNCTION     0.59     0.84     7.72     0  04:46        0.83
  YS02001754           JUNCTION     0.84     1.32     7.93     0  03:48        1.15
  YS02001762           JUNCTION     1.04     1.53     7.93     0  04:27        1.30
  YS02001765           JUNCTION     0.99     1.55     8.00     0  04:27        1.25
  YS02001767           JUNCTION     0.95     1.60     8.09     0  04:31        1.23
  YS02001770           JUNCTION     0.95     1.73     8.23     0  04:33        1.28
  YS02001774           JUNCTION     1.02     1.85     8.27     0  04:33        1.40
  YS02001779           JUNCTION     0.77     1.67     8.36     0  04:33        1.23
  YS02001882           JUNCTION     0.29     0.47     7.18     0  02:54        0.47
  YS02001884           JUNCTION     0.38     0.56     7.18     0  02:54        0.56
  YS02001759           JUNCTION     1.07     1.47     7.83     0  04:47        1.34
  YS02001887           JUNCTION     0.46     0.64     7.18     0  02:54        0.64
  YS02001890           JUNCTION     0.49     0.67     7.18     0  02:55        0.67
  YS02001898           JUNCTION     0.26     0.43     7.16     0  02:55        0.43
  YS02001901           JUNCTION     0.38     0.55     7.16     0  02:55        0.55
  YS02001904           JUNCTION     0.36     0.53     7.16     0  02:56        0.53
  YS02001907           JUNCTION     0.69     0.87     7.16     0  02:55        0.87
  YS02001910           JUNCTION     0.48     0.66     7.16     0  02:55        0.66
  YS02001915           JUNCTION     0.28     0.44     7.16     0  02:56        0.44
  YS02001918           JUNCTION     0.08     0.10     7.16     0  03:03        0.10
  YS02001619           JUNCTION     0.55     0.75     7.68     0  04:47        0.75
  YS02001629           JUNCTION     0.90     1.15     7.69     0  04:41        1.14
  YS02001641           JUNCTION     1.00     1.36     7.79     0  04:23        1.31
  YS02001644           JUNCTION     1.01     1.37     7.80     0  04:23        1.31
  YS02001652           JUNCTION     0.85     1.23     7.83     0  04:04        1.12
  YS02001655           JUNCTION     0.62     0.86     7.71     0  04:08        0.86
  YS02001920           JUNCTION     0.17     0.21     7.22     0  03:02        0.21
  YS02001923           JUNCTION     0.06     0.09     7.35     0  03:02        0.09
  YS02001926           JUNCTION     0.14     0.18     7.62     0  03:01        0.18
  YS02001929           JUNCTION     0.07     0.09     7.78     0  03:01        0.09
  YS02001658           JUNCTION     0.35     0.57     7.71     0  04:00        0.56
  YS02001661           JUNCTION     0.17     0.29     7.70     0  04:43        0.29
  YS02001664           JUNCTION     0.07     0.12     8.04     0  02:46        0.12
  YS02001622           JUNCTION     0.57     0.78     7.68     0  04:45        0.77
  YS02001633           JUNCTION     0.99     1.30     7.75     0  04:23        1.28
  YS02001649           JUNCTION     1.04     1.34     7.73     0  04:44        1.32
  YS02001757           JUNCTION     1.17     1.52     7.78     0  03:48        1.45
  YS02001895           JUNCTION     0.26     0.43     7.17     0  02:55        0.43
  YS02001625           JUNCTION     0.85     1.10     7.71     0  03:48        1.08
  YS02163301           JUNCTION     0.93     1.19     7.71     0  04:23        1.19
  YS02163601           JUNCTION     1.04     1.38     7.78     0  04:23        1.35
  YS02164001           JUNCTION     0.98     1.33     7.79     0  04:23        1.29
  YS02001647           JUNCTION     0.84     1.19     7.80     0  04:23        1.13
  YSB1154              JUNCTION     0.24     0.39     9.44     0  02:17        0.39
  YSB6556              JUNCTION     0.13     0.27     9.44     0  02:17        0.27
  YSB1174              JUNCTION     0.19     0.33     9.44     0  02:17        0.33
  YSB1171              JUNCTION     0.39     0.54     9.44     0  02:16        0.54
  YS02006553           JUNCTION     0.69     0.88     7.16     0  02:55        0.88
  YS02006561           JUNCTION     0.14     0.23     6.89     0  02:56        0.23
  YS02006556           JUNCTION     0.66     0.85     7.16     0  02:56        0.85
  YS02006558           JUNCTION     0.71     0.89     7.16     0  02:56        0.89
  YS02001783           JUNCTION     0.25     0.41     6.55     0  02:56        0.41
  YS02001784           JUNCTION     0.28     0.44     6.51     0  02:56        0.44
  YS02001786           JUNCTION     0.24     0.37     6.40     0  02:56        0.37
  YS02001788           JUNCTION     0.17     0.28     6.26     0  02:56        0.28
  YS02001790           JUNCTION     0.21     0.34     5.99     0  02:57        0.34
  YS02001791           JUNCTION     0.14     0.22     5.69     0  02:56        0.22
  YS02001793           JUNCTION     0.09     0.58     5.41     0  03:20        0.55
  WS02004139           JUNCTION     0.60     0.73     5.64     0  03:17        0.73
  WSC                  OUTFALL      0.30     0.36     1.03     0  03:16        0.36
  3                    OUTFALL      0.08     0.23     6.23     0  00:00        0.19
  4                    OUTFALL      0.02     0.10     7.10     0  03:58        0.10
  5                    OUTFALL      0.00     0.00     5.00     0  00:00        0.00
  JK-storage           STORAGE      0.51     4.47     5.27     0  03:20        4.45
  CC-storage           STORAGE      0.42     0.65     7.65     0  04:46        0.65
  XR-storage           STORAGE      4.13     6.47     4.47     0  07:50        6.47
  
  
  *******************
  Node Inflow Summary
  *******************
  
  -------------------------------------------------------------------------------------------------
                                  Maximum  Maximum                  Lateral       Total        Flow
                                  Lateral    Total  Time of Max      Inflow      Inflow     Balance
                                   Inflow   Inflow   Occurrence      Volume      Volume       Error
  Node                 Type           LPS      LPS  days hr:min    10^6 ltr    10^6 ltr     Percent
  -------------------------------------------------------------------------------------------------
  WS02001211           JUNCTION      7.35   388.25     0  04:50       0.207        7.08       0.309
  WS02001212           JUNCTION      0.00   389.07     0  04:50           0        7.06       0.179
  WS02001213           JUNCTION      0.00   390.21     0  04:50           0        7.05       0.264
  WS02003069           JUNCTION      0.32   810.30     0  03:14     0.00902        14.4       0.172
  WS02003072           JUNCTION      0.00   810.24     0  03:15           0        14.4       0.218
  WS02003073           JUNCTION      1.82   812.31     0  03:15      0.0514        14.4       0.236
  WS02003060           JUNCTION     16.53   809.90     0  03:14       0.466        14.4       0.167
  WS02003066           JUNCTION      0.00   496.09     0  02:35           0        6.99       0.070
  WS02003059           JUNCTION      0.00   392.28     0  04:50           0        7.03       0.434
  WS02003067           JUNCTION      0.00   495.91     0  02:34           0           7       0.145
  WS02004401           JUNCTION      0.00   512.14     0  02:29           0        7.25       0.330
  WS02004402           JUNCTION      0.00   509.37     0  02:30           0        7.23       0.308
  WS02004403           JUNCTION      0.00   507.42     0  02:30           0        7.21       0.277
  WS02004404           JUNCTION      0.16   506.63     0  02:31     0.00457        7.19       0.205
  WS02004406           JUNCTION      0.00   506.57     0  02:32           0        7.16       0.499
  WS02004409           JUNCTION      0.00   506.07     0  02:32           0        7.11       0.267
  WS02004410           JUNCTION      0.00   502.61     0  02:33           0        7.09       0.296
  WS02004411           JUNCTION      0.00   499.56     0  02:33           0        7.07       0.300
  WS02004412           JUNCTION      0.00   497.56     0  02:34           0        7.05       0.319
  WS02004413           JUNCTION      0.00   496.44     0  02:34           0        7.03       0.464
  WS02004405           JUNCTION      0.04   506.34     0  02:32     0.00107        7.18       0.309
  WS02006109           JUNCTION      1.23   519.64     0  02:27      0.0347        7.36       0.309
  WS02006110           JUNCTION      0.00   519.64     0  02:27           0        7.34       0.294
  WS02006111           JUNCTION      0.00   538.53     0  02:27           0        7.31       0.070
  WS02006112           JUNCTION      9.46   528.54     0  02:27      0.0268        7.33       0.413
  WS02006113           JUNCTION      0.00   519.79     0  02:27           0        7.32       0.159
  WS02006115           JUNCTION      0.00   523.15     0  02:29           0         7.3       0.325
  WS02006116           JUNCTION      0.00   516.54     0  02:29           0        7.27       0.309
  WS02006230           JUNCTION     10.28   396.97     0  05:10        0.29        6.45       0.236
  WS02006231           JUNCTION      0.00   386.96     0  05:10           0        6.18       0.230
  WS02006232           JUNCTION      0.00   386.94     0  05:10           0        6.19       0.284
  WS02006234           JUNCTION      0.00   388.74     0  03:54           0         6.2       0.162
  WS02006235           JUNCTION      0.00   388.98     0  04:32           0        6.24       0.198
  WS02006238           JUNCTION      0.00   343.50     0  05:00           0         4.3       0.204
  WS02006240           JUNCTION      0.00   337.84     0  05:00           0         4.3       0.364
  WS02006242           JUNCTION      0.00   334.95     0  05:00           0        4.31       0.435
  WS02006243           JUNCTION      0.00   340.36     0  06:21           0         4.3      -0.057
  WS02006245           JUNCTION      0.00   346.42     0  06:21           0        4.32       0.355
  WS02006247           JUNCTION      0.00   351.64     0  06:21           0        4.33       0.239
  WS02006248           JUNCTION      0.00   356.43     0  06:21           0        4.33       0.144
  WS02006249           JUNCTION      0.00   403.41     0  04:00           0        4.82       0.345
  WS02006239           JUNCTION      0.00   342.10     0  05:00           0         4.3       0.341
  WS02006251           JUNCTION      0.08   403.61     0  03:51     0.00217        4.87       0.288
  WS02006252           JUNCTION      0.00   400.00     0  03:50           0        4.69       0.011
  WS02006253           JUNCTION      1.44    46.85     0  02:20     0.00347       0.187       4.656
  WS02006256           JUNCTION      0.00   600.00     0  00:00           0        4.42       0.052
  WS02004138           JUNCTION      0.00   380.00     0  00:20           0         6.9       0.049
  WS02004407           JUNCTION      0.00   506.19     0  02:32           0        7.12       0.121
  WS02006228           JUNCTION      0.00   518.40     0  02:27           0        7.34       0.222
  WS02006229           JUNCTION      0.00   518.84     0  02:26           0        7.36       0.172
  WS02006280           JUNCTION      0.00   215.19     0  02:18           0        0.92       0.008
  WS02006284           JUNCTION      0.10   215.18     0  02:18      0.0027       0.921       0.116
  WS02006287           JUNCTION      0.00   215.07     0  02:18           0       0.919       0.079
  WSF200               JUNCTION      0.00   496.08     0  02:35           0        6.98       0.070
  HS02004901           JUNCTION     11.72    11.72     0  02:10      0.0323      0.0324       5.728
  HS02004881           JUNCTION      4.74    40.91     0  02:17      0.0141       0.148       0.165
  HS02004876           JUNCTION      7.56    36.49     0  02:18       0.027       0.135       0.393
  HS02004870           JUNCTION      8.36    29.08     0  02:18      0.0267       0.108       0.099
  HS02004862           JUNCTION      6.89    21.26     0  02:18      0.0323      0.0813       0.208
  HS02004856           JUNCTION      6.20    14.42     0  02:18      0.0201      0.0505       2.934
  HS02004852           JUNCTION      0.00     8.60     0  02:18           0      0.0305       0.167
  HS02004848           JUNCTION     13.77    13.77     0  02:21      0.0636      0.0636       0.069
  HS02004842           JUNCTION      0.00     5.64     0  02:31           0      0.0461      39.268
  HS02004837           JUNCTION     19.77    24.54     0  02:17       0.225       0.259       0.316
  HS02004830           JUNCTION      0.15    24.67     0  02:18     0.00423       0.249       0.497
  HS02004824           JUNCTION     15.52    40.00     0  02:21      0.0833       0.331       0.163
  HS02004817           JUNCTION      0.60    40.59     0  02:21      0.0169       0.347       5.040
  HS02004807           JUNCTION     15.74    54.93     0  02:19       0.049        0.38       1.125
  HS02004802           JUNCTION      0.00    55.25     0  02:21           0       0.375       1.093
  HS02004799           JUNCTION     12.12   136.57     0  02:15      0.0397       0.479       0.476
  HS02004792           JUNCTION     54.13   124.69     0  02:15       0.173        0.44       0.093
  HS02004788           JUNCTION     18.11    72.61     0  02:16       0.102       0.268       0.145
  HS02004785           JUNCTION      0.15    54.86     0  02:15     0.00423       0.168       0.289
  HS02004777           JUNCTION      0.03    55.18     0  02:14    0.000846       0.168       3.182
  HS02004770           JUNCTION     45.85    56.32     0  02:12       0.138       0.169       1.870
  HS02004480           JUNCTION      0.00   161.05     0  02:16           0       0.559       0.131
  HS02004479           JUNCTION      0.00    24.97     0  02:18           0      0.0926       0.794
  HS02004478           JUNCTION      0.00   215.06     0  02:18           0        0.92       0.068
  YS02001745           JUNCTION     79.65    79.65     0  03:01       0.855       0.855       0.104
  YS02001748           JUNCTION      0.04   134.58     0  03:50     0.00127       0.881       0.264
  YS02001751           JUNCTION      0.01   163.95     0  03:50     0.00031       0.879       1.130
  YS02001754           JUNCTION      0.26   105.47     0  04:09     0.00733       0.852       1.886
  YS02001762           JUNCTION      0.00   113.35     0  02:40           0       0.949       2.087
  YS02001765           JUNCTION      0.00   121.55     0  02:45           0       0.949       2.288
  YS02001767           JUNCTION      0.54   124.09     0  02:55      0.0151       0.963       3.153
  YS02001770           JUNCTION    102.05   127.49     0  02:54       0.998        1.07       2.282
  YS02001774           JUNCTION      0.00    63.88     0  04:33           0       0.165      15.580
  YS02001779           JUNCTION      0.01    64.46     0  04:33    0.000141      0.0741      14.789
  YS02001882           JUNCTION      0.00     4.20     0  02:10           0     0.00544      45.206
  YS02001884           JUNCTION      0.00    11.85     0  02:07           0      0.0217      29.247
  YS02001759           JUNCTION     99.65   212.14     0  02:52       0.931        1.85       1.188
  YS02001887           JUNCTION    130.87   130.87     0  02:44        1.11        1.12       0.647
  YS02001890           JUNCTION      0.00   130.29     0  02:47           0         1.1       0.724
  YS02001898           JUNCTION      0.00   129.75     0  02:47           0        1.08       0.206
  YS02001901           JUNCTION      0.00   129.60     0  02:48           0        1.08       0.515
  YS02001904           JUNCTION      0.00   128.92     0  02:50           0        1.08       0.479
  YS02001907           JUNCTION      0.00   235.11     0  02:57           0        2.32       0.962
  YS02001910           JUNCTION      0.00   107.87     0  03:01           0        1.25       0.824
  YS02001915           JUNCTION     71.24   107.34     0  03:01       0.731        1.25       0.368
  YS02001918           JUNCTION      0.00    36.38     0  03:02           0       0.523       0.220
  YS02001619           JUNCTION     69.31    69.31     0  03:01       0.721       0.721       0.576
  YS02001629           JUNCTION      0.00    90.35     0  03:05           0       0.682       2.125
  YS02001641           JUNCTION      0.00   157.43     0  03:03           0        1.45       1.303
  YS02001644           JUNCTION     75.68   235.19     0  03:03        0.82        2.24       1.038
  YS02001652           JUNCTION      0.00   126.34     0  03:00           0        0.81       1.442
  YS02001655           JUNCTION      0.15   181.51     0  04:08     0.00434       0.857       1.297
  YS02001920           JUNCTION      2.87    36.40     0  03:02      0.0809       0.525       0.394
  YS02001923           JUNCTION      0.04    33.53     0  03:01     0.00106       0.445       0.069
  YS02001926           JUNCTION      0.05    33.57     0  03:01     0.00147       0.446       0.494
  YS02001929           JUNCTION     33.53    33.53     0  03:01       0.445       0.445       0.068
  YS02001658           JUNCTION      0.00   172.78     0  04:02           0       0.884       0.293
  YS02001661           JUNCTION      0.00    92.85     0  02:46           0       0.843       0.089
  YS02001664           JUNCTION     92.85    92.85     0  02:46       0.813       0.813       0.018
  YS02001622           JUNCTION      0.00    85.60     0  02:50           0       0.723       1.758
  YS02001633           JUNCTION     76.94   161.78     0  03:04       0.844         1.5       1.907
  YS02001649           JUNCTION      0.00   328.05     0  03:02           0        2.98       1.145
  YS02001757           JUNCTION      0.00   582.61     0  03:01           0        5.57       1.656
  YS02001895           JUNCTION      0.00   129.87     0  02:46           0        1.09       0.347
  YS02001625           JUNCTION      0.00    89.45     0  04:39           0       0.713       4.147
  YS02163301           JUNCTION      0.00    93.54     0  03:04           0       0.675       3.034
  YS02163601           JUNCTION      0.11   151.06     0  03:03      0.0031        1.46       1.931
  YS02164001           JUNCTION      0.00   148.39     0  03:04           0        1.45       1.195
  YS02001647           JUNCTION      0.00   237.61     0  03:04           0         2.2       0.746
  YSB1154              JUNCTION     13.44    13.44     0  02:15      0.0481      0.0494       3.008
  YSB6556              JUNCTION      0.00    13.43     0  02:17           0      0.0504       2.533
  YSB1174              JUNCTION     13.33    13.33     0  02:09       0.035      0.0361       3.689
  YSB1171              JUNCTION      0.00    24.92     0  02:16           0      0.0921       7.372
  YS02006553           JUNCTION      0.00   235.32     0  03:02           0        2.31       0.624
  YS02006561           JUNCTION      0.00   348.93     0  02:56           0        3.27       0.020
  YS02006556           JUNCTION      0.00   235.67     0  03:02           0        2.31       0.450
  YS02006558           JUNCTION    110.92   344.97     0  02:56        1.01         3.3       0.138
  YS02001783           JUNCTION      0.00   344.96     0  02:56           0        3.27       0.048
  YS02001784           JUNCTION      1.06   346.02     0  02:56      0.0299         3.3       0.078
  YS02001786           JUNCTION      0.06   346.05     0  02:56     0.00159         3.3       0.076
  YS02001788           JUNCTION      0.07   346.11     0  02:57       0.002         3.3       0.044
  YS02001790           JUNCTION      0.15   346.27     0  02:56     0.00437         3.3       0.055
  YS02001791           JUNCTION      0.00   346.26     0  02:57           0         3.3       0.025
  YS02001793           JUNCTION      0.00   560.62     0  03:20           0        3.32       0.049
  WS02004139           JUNCTION      0.32   380.37     0  00:20     0.00905         6.9       0.376
  WSC                  OUTFALL       0.00   812.49     0  03:16           0        14.4       0.000
  3                    OUTFALL       0.00   597.65     0  00:00           0        2.45       0.000
  4                    OUTFALL       0.00    97.84     0  03:58           0       0.474       0.000
  5                    OUTFALL       0.00     0.00     0  00:00           0           0       0.000 ltr
  JK-storage           STORAGE       0.00   922.94     0  03:20           0        3.47     -21.914
  CC-storage           STORAGE       0.00   583.01     0  03:01           0        5.48      -0.333
  XR-storage           STORAGE     328.89   328.89     0  02:57        7.07        7.67       0.000
  
  
  **********************
  Node Surcharge Summary
  **********************
  
  Surcharging occurs when water rises above the top of the highest conduit.
  ---------------------------------------------------------------------
                                               Max. Height   Min. Depth
                                   Hours       Above Crown    Below Rim
  Node                 Type      Surcharged         Meters       Meters
  ---------------------------------------------------------------------
  WS02006109           JUNCTION        2.10          0.133        1.687
  WS02006112           JUNCTION        0.08          0.016        1.664
  WS02006232           JUNCTION        1.96          0.071        1.409
  WS02006235           JUNCTION        0.89          0.020        1.270
  WS02006238           JUNCTION        1.55          0.040        1.390
  WS02006242           JUNCTION        1.24          0.038        0.782
  WS02006252           JUNCTION        2.42          0.193        0.907
  WS02006256           JUNCTION        0.01          1.050        0.000
  WS02006228           JUNCTION        1.90          0.157        2.043
  YS02001754           JUNCTION        0.30          0.269        0.881
  YS02001762           JUNCTION        4.27          0.528        0.622
  YS02001765           JUNCTION        3.98          0.555        0.545
  YS02001767           JUNCTION        3.69          0.603        0.427
  YS02001770           JUNCTION        3.10          0.701        0.219
  YS02001774           JUNCTION        4.15          0.846        0.204
  YS02001779           JUNCTION        0.10          0.675        0.005
  YS02001759           JUNCTION        5.01          0.471        0.739
  YS02001641           JUNCTION        4.08          0.357        0.743
  YS02001644           JUNCTION        4.10          0.366        0.554
  YS02001652           JUNCTION        1.11          0.201        0.929
  YS02001633           JUNCTION        3.86          0.276        0.784
  YS02001649           JUNCTION        4.38          0.341        0.709
  YS02001757           JUNCTION        5.34          0.518        0.692
  YS02001625           JUNCTION        1.71          0.103        0.677
  YS02163301           JUNCTION        3.22          0.194        0.836
  YS02163601           JUNCTION        4.30          0.379        0.701
  YS02164001           JUNCTION        3.96          0.334        0.766
  YS02001647           JUNCTION        1.56          0.187        0.713
  
  
  *********************
  Node Flooding Summary
  *********************
  
  Flooding refers to all water that overflows a node, whether it ponds or not.
  --------------------------------------------------------------------------
                                                             Total   Maximum
                                 Maximum   Time of Max       Flood    Ponded
                        Hours       Rate    Occurrence      Volume     Depth
  Node                 Flooded       LPS   days hr:min    10^6 ltr    Meters
  --------------------------------------------------------------------------
  WS02006256              0.01    406.11      0  00:00       0.001     0.000
  
  
  **********************
  Storage Volume Summary
  **********************
  
  --------------------------------------------------------------------------------------------------
                         Average     Avg  Evap Exfil       Maximum     Max    Time of Max    Maximum
                          Volume    Pcnt  Pcnt  Pcnt        Volume    Pcnt     Occurrence    Outflow
  Storage Unit           1000 m3    Full  Loss  Loss       1000 m3    Full    days hr:min        LPS
  --------------------------------------------------------------------------------------------------
  JK-storage               0.025       9     0     0         0.225      77       0  03:20     600.00
  CC-storage               1.171       7     0     0         1.822      12       0  04:46     400.00
  XR-storage               0.495      53     0     0         0.777      84       0  07:50     380.00
  
  
  ***********************
  Outfall Loading Summary
  ***********************
  
  -----------------------------------------------------------
                         Flow       Avg       Max       Total
                         Freq      Flow      Flow      Volume
  Outfall Node           Pcnt       LPS       LPS    10^6 ltr
  -----------------------------------------------------------
  WSC                   99.99    578.17    812.49      14.388
  3                     87.57    139.96    597.65       2.447
  4                     35.35     56.87     97.84       0.474
  5                      0.00      0.00      0.00       0.000
  -----------------------------------------------------------
  System                55.73    775.01   1011.97      17.309
  
  
  ********************
  Link Flow Summary
  ********************
  
  -----------------------------------------------------------------------------
                                 Maximum  Time of Max   Maximum    Max/    Max/
                                  |Flow|   Occurrence   |Veloc|    Full    Full
  Link                 Type          LPS  days hr:min     m/sec    Flow   Depth
  -----------------------------------------------------------------------------
  WS02003066WSF200     CONDUIT    496.08     0  02:35      2.74    0.08    0.22
  WS02006287WS02006284 CONDUIT    215.08     0  02:18      1.65    0.10    0.22
  WS02006284WS02006280 CONDUIT    215.19     0  02:18      1.89    0.09    0.20
  WS02006280WS02006229 CONDUIT    215.19     0  02:18      3.04    0.05    0.15
  WS02006229WS02006228 CONDUIT    518.40     0  02:27      1.03    1.72    1.00
  WS02006256WS02006235 CONDUIT    177.52     0  00:01      2.73    1.88    1.00
  WS02006253WS02006251 CONDUIT     52.93     0  02:22      0.50    0.16    0.90
  WS02006252WS02006251 CONDUIT    400.37     0  04:09      3.19    1.47    1.00
  WS02006251WS02006249 CONDUIT    403.41     0  04:00      1.18    1.16    0.87
  WS02006249WS02006248 CONDUIT    356.43     0  06:21      1.22    1.95    0.83
  WS02006248WS02006247 CONDUIT    351.64     0  06:21      1.18    0.77    0.87
  WS02006247WS02006245 CONDUIT    346.42     0  06:21      1.16    2.75    0.90
  WS02006245WS02006243 CONDUIT    340.36     0  06:21      1.20    1.01    0.91
  WS02006243WS02006242 CONDUIT    334.95     0  05:00      1.02    0.72    0.97
  WS02006242WS02006240 CONDUIT    337.84     0  05:00      0.90    1.34    0.99
  WS02006240WS02006239 CONDUIT    342.10     0  05:00      0.94    1.08    0.99
  WS02006239WS02006238 CONDUIT    343.50     0  05:00      0.91    1.10    1.00
  WS02006238WS02006235 CONDUIT    343.68     0  05:00      1.32    0.77    1.00
  WS02006235WS02006234 CONDUIT    388.74     0  03:54      1.04    4.10    0.98
  WS02006234WS02006232 CONDUIT    386.94     0  05:10      1.17    0.78    1.00
  WS02006232WS02006231 CONDUIT    386.96     0  05:10      1.05    0.81    0.96
  WS02006231WS02006230 CONDUIT    386.69     0  05:10      1.36    5.87    0.89
  WS02006230WS02006229 CONDUIT    396.71     0  05:10      1.03    8.83    1.00
  WS02006228WS02006109 CONDUIT    518.41     0  02:27      1.03    2.27    1.00
  WS02006116WS02004401 CONDUIT    512.14     0  02:29      0.76    0.71    0.81
  WS02006115WS02006116 CONDUIT    516.54     0  02:29      0.88    0.66    0.73
  WS02006113WS02006111 CONDUIT    538.53     0  02:27      2.43    0.65    0.45
  WS02006112WS02006115 CONDUIT    523.15     0  02:29      0.75    0.31    0.86
  WS02006111WS02006112 CONDUIT    522.22     0  02:27      1.46    0.25    0.67
  WS02006110WS02006113 CONDUIT    519.79     0  02:27      1.24    0.47    0.78
  WS02006109WS02006110 CONDUIT    519.64     0  02:27      1.03    1.00    1.00
  WS02004411WS02004412 CONDUIT    497.56     0  02:34      0.89    0.71    0.67
  WS02004401WS02004402 CONDUIT    509.37     0  02:30      0.73    0.61    0.84
  WS02004413WS02003067 CONDUIT    495.91     0  02:34      1.06    0.21    0.57
  WS02004412WS02004413 CONDUIT    496.44     0  02:34      0.78    0.33    0.75
  WS02004410WS02004411 CONDUIT    499.56     0  02:33      0.92    0.68    0.66
  WS02004409WS02004410 CONDUIT    502.61     0  02:33      0.96    0.65    0.65
  WS02004407WS02004409 CONDUIT    506.07     0  02:32      1.46    0.18    0.46
  WS02004406WS02004407 CONDUIT    506.19     0  02:32      1.00    0.23    0.61
  WS02004405WS02004406 CONDUIT    506.57     0  02:32      0.66    1.00    0.94
  WS02004404WS02004405 CONDUIT    506.30     0  02:32      0.66    4.96    0.94
  WS02004403WS02004404 CONDUIT    506.46     0  02:31      0.68    0.37    0.91
  WS02004402WS02004403 CONDUIT    507.42     0  02:30      0.71    0.73    0.86
  WS02004139WS02001211 CONDUIT    380.90     0  04:50      0.80    0.48    0.59
  WS02004138WS02004139 CONDUIT    380.05     0  00:20      3.34    0.08    0.43
  WS02003067WS02003066 CONDUIT    496.09     0  02:35      1.15    0.16    0.41
  WS02001213WS02003059 CONDUIT    392.28     0  04:50      0.80    0.65    0.75
  WS02001212WS02001213 CONDUIT    390.21     0  04:50      1.32    0.60    0.45
  WS02001211WS02001212 CONDUIT    389.07     0  04:50      0.78    0.30    0.63
  WS02003072WS02003073 CONDUIT    810.49     0  03:15      1.64    1.75    0.45
  WS02003069WS02003072 CONDUIT    810.24     0  03:15      1.55    0.39    0.47
  WS02003060WS02003069 CONDUIT    809.98     0  03:14      1.80    0.32    0.42
  WS02003059WS02003060 CONDUIT    395.22     0  04:51      0.95    0.26    0.63
  HS02004901HS02004770 CONDUIT     10.81     0  02:15      0.05    0.04    0.32
  HS02004876HS02004881 CONDUIT     36.57     0  02:18      0.58    0.39    0.09
  HS02004870HS02004876 CONDUIT     29.06     0  02:18      0.41    0.02    0.10
  HS02004842HS02004848 CONDUIT      5.64     0  02:31      0.03    0.00    0.28
  HS02004837HS02004842 CONDUIT      5.83     0  02:31      0.41    0.00    0.29
  HS02004830HS02004837 CONDUIT     24.52     0  02:18      0.45    0.02    0.08
  HS02004824HS02004830 CONDUIT     24.67     0  02:19      0.49    0.03    0.07
  HS02004817HS02004824 CONDUIT     39.99     0  02:21      0.17    0.02    0.40
  HS02004770HS02004777 CONDUIT     55.15     0  02:14      0.23    0.10    0.34
  HS02004799HS02004480 CONDUIT    136.34     0  02:16      0.61    0.17    0.32
  HS02004792HS02004799 CONDUIT    124.63     0  02:16      0.70    0.08    0.25
  HS02004788HS02004792 CONDUIT     72.55     0  02:17      0.85    0.05    0.12
  HS02004785HS02004788 CONDUIT     54.76     0  02:16      0.53    0.41    0.15
  HS02004777HS02004785 CONDUIT     54.71     0  02:15      0.28    0.07    0.28
  HS02004480HS02004478 CONDUIT    161.00     0  02:17      0.98    0.68    0.23
  HS02004479HS02004480 CONDUIT     25.20     0  02:19      0.16    0.02    0.31
  HS02004862HS02004870 CONDUIT     21.22     0  02:19      0.48    0.02    0.06
  HS02004848HS02004852 CONDUIT      8.60     0  02:18      0.32    0.01    0.04
  HS02004856HS02004862 CONDUIT     14.39     0  02:18      0.35    0.01    0.06
  HS02004852HS02004856 CONDUIT      8.57     0  02:20      0.13    0.01    0.09
  HS02004802HS02004478 CONDUIT     55.65     0  02:22      0.31    0.05    0.26
  HS02004478WS02006287 CONDUIT    215.07     0  02:18      1.34    0.06    0.18
  HS02004817HS02004807 CONDUIT     41.18     0  02:23      0.11    0.02    0.52
  HS02004807HS02004802 CONDUIT     55.25     0  02:21      0.26    0.11    0.31
  YS02001759YS02001757 CONDUIT    212.79     0  02:52      0.27    0.15    1.00
  YS02001762YS02001759 CONDUIT    112.53     0  02:52      0.18    0.13    1.00
  YS02001765YS02001762 CONDUIT    113.35     0  02:40      0.23    0.11    1.00
  YS02001770YS02001767 CONDUIT    123.55     0  02:55      0.32    0.49    1.00
  YS02001774YS02001770 CONDUIT     63.88     0  04:33      0.15    0.04    1.00
  YS02001779YS02001774 CONDUIT     64.45     0  04:33      0.08    0.03    1.00
  YS02001649YS02001757 CONDUIT    329.56     0  03:02      0.42    0.20    1.00
  YS02001767YS02001765 CONDUIT    121.55     0  02:45      0.26    0.15    1.00
  YS02006561YS02001783 CONDUIT    344.96     0  02:56      1.83    0.18    0.40
  YS02001783YS02001784 CONDUIT    344.96     0  02:56      1.27    0.48    0.53
  YS02001784YS02001785 CONDUIT    346.00     0  02:56      1.36    0.81    0.51
  YS02001788YS02001790 CONDUIT    346.11     0  02:56      1.92    0.26    0.39
  YS02001790YS02001791 CONDUIT    346.26     0  02:57      2.20    0.38    0.35
  YS02001791YS02001793 CONDUIT    346.26     0  02:57      4.52    0.15    0.48
  YS02001910YS02001907 CONDUIT    108.00     0  03:01      0.49    0.06    0.76
  YS02001786YS02001788 CONDUIT    346.04     0  02:57      1.80    0.67    0.41
  YS02001915YS02001910 CONDUIT    107.87     0  03:01      0.44    0.05    0.55
  YS02001918YS02001915 CONDUIT     36.35     0  03:03      0.44    0.02    0.27
  YS02001923YS02001920 CONDUIT     33.53     0  03:02      0.47    0.02    0.15
  YS02001926YS02001923 CONDUIT     33.50     0  03:01      0.51    0.05    0.14
  YS02001929YS02001926 CONDUIT     33.52     0  03:01      0.54    0.02    0.13
  YS02001920YS02001918 CONDUIT     36.38     0  03:02      0.48    0.04    0.15
  YS02001629YS02163301 CONDUIT     93.54     0  03:04      0.12    0.12    1.00
  YS02001619YS02001622 CONDUIT     85.60     0  02:50      0.66    0.13    0.76
  YS02001622YS02001625 CONDUIT     89.45     0  04:39      0.25    0.05    0.89
  YS02001625YS02001629 CONDUIT     90.35     0  03:05      0.25    0.04    0.88
  YS02163301YS02001633 CONDUIT     86.91     0  03:04      0.11    0.08    1.00
  YS02163601YS02164001 CONDUIT    148.39     0  03:04      0.19    0.13    1.00
  YS02164001YS02001641 CONDUIT    157.43     0  03:03      0.20    0.21    1.00
  YS02001641YS02001644 CONDUIT    160.86     0  03:04      0.20    0.52    1.00
  YS02001647YS02001649 CONDUIT    240.17     0  02:59      0.31    0.13    1.00
  YS02006553YS02006556 CONDUIT    235.67     0  03:02      0.33    0.20    0.84
  YS02006556YS02006558 CONDUIT    235.91     0  03:03      0.33    0.19    0.87
  YSB6556YSB1171       CONDUIT     13.63     0  02:19      0.06    0.01    0.58
  YS02001907YS02006553 CONDUIT    235.32     0  03:02      0.27    0.28    0.96
  YS02006558YS02006561 CONDUIT    348.93     0  02:56      2.38    0.77    0.52
  YS02001633YS02163601 CONDUIT    150.95     0  03:03      0.19    0.16    1.00
  YS02001644YS02001647 CONDUIT    237.61     0  03:04      0.31    0.14    1.00
  YS02001745YS02001748 CONDUIT    109.81     0  04:45      1.43    0.04    0.35
  YS02001748YS02001751 CONDUIT    163.94     0  03:50      1.10    0.08    0.70
  YS02001751YS02001754 CONDUIT    105.21     0  04:09      0.97    0.05    0.92
  YS02001754YS02001757 CONDUIT    106.84     0  04:00      0.33    0.04    1.00
  YS02001882YS02001884 CONDUIT      4.20     0  02:10      0.06    0.00    0.48
  YS02001884YS02001887 CONDUIT     11.85     0  02:07      0.06    0.02    0.58
  YS02001890YS02001895 CONDUIT    129.87     0  02:46      0.30    0.06    0.55
  YS02001895YS02001898 CONDUIT    129.75     0  02:47      0.49    0.23    0.41
  YS02001898YS02001901 CONDUIT    129.60     0  02:48      0.34    0.08    0.49
  YS02001901YS02001904 CONDUIT    128.92     0  02:50      0.30    0.20    0.54
  YS02001904YS02001907 CONDUIT    129.09     0  02:51      0.22    0.05    0.70
  YS02001887YS02001890 CONDUIT    130.29     0  02:47      0.25    0.22    0.63
  YS02001652YS02001649 CONDUIT    135.58     0  02:38      0.33    0.07    1.00
  YS02001655YS02001652 CONDUIT    126.34     0  03:00      1.05    0.06    0.93
  YS02001658YS02001655 CONDUIT    181.36     0  04:08      1.27    0.08    0.69
  YS02001661YS02001658 CONDUIT    151.05     0  04:21      1.48    0.06    0.38
  YS02001664YS02001661 CONDUIT     92.85     0  02:46      1.16    0.03    0.18
  YSB1154YSB6556       CONDUIT     13.43     0  02:17      0.19    0.02    0.47
  YSB1174YSB1171       CONDUIT     12.36     0  02:11      0.06    0.02    0.59
  YSB1171HS02004479    CONDUIT     24.97     0  02:18      0.54    0.02    0.45
  HS02004881HS02006253 CONDUIT     40.91     0  02:18      1.70    0.01    0.22
  YS02001793JiankangQianchi CONDUIT    922.94     0  03:20     13.33    0.07    0.79
  YS02001757CaochengTiaoxuchi CONDUIT    583.01     0  03:01      1.19    0.26    0.83
  WSF200WS02003060     CONDUIT    496.13     0  02:35      1.85    0.11    0.30
  1                    CONDUIT    812.49     0  03:16      3.14    0.28    0.36
  2                    CONDUIT     97.84     0  03:58      4.82    0.23    0.33
  3                    CONDUIT    597.65     0  00:00     10.05    0.95    0.86
  4                    CONDUIT      0.00     0  00:00      0.00    0.00    0.00
  CC-Pump-1            PUMP       200.00     0  03:50              1.00
  CC-Pump-2            PUMP       200.00     0  02:40              1.00
  JK-Pump-1            PUMP       300.00     0  00:00              1.00
  JK-Pump-2            PUMP       300.00     0  00:00              1.00
  XR-Pump-1            PUMP        95.00     0  00:00              1.00
  XR-Pump-2            PUMP        95.00     0  00:20              1.00
  XR-Pump-3            PUMP        95.00     0  00:00              1.00
  XR-Pump-4            PUMP        95.00     0  00:00              1.00
  
  
  ***************************
  Flow Classification Summary
  ***************************
  
  -------------------------------------------------------------------------------------
                      Adjusted    ---------- Fraction of Time in Flow Class ---------- 
                       /Actual         Up    Down  Sub   Sup   Up    Down  Norm  Inlet 
  Conduit               Length    Dry  Dry   Dry   Crit  Crit  Crit  Crit  Ltd   Ctrl  
  -------------------------------------------------------------------------------------
  WS02003066WSF200        1.00   0.04  0.03  0.00  0.00  0.93  0.00  0.00  0.69  0.00
  WS02006287WS02006284    1.00   0.03  0.02  0.00  0.69  0.26  0.00  0.00  0.77  0.00
  WS02006284WS02006280    1.00   0.04  0.00  0.00  0.00  0.00  0.00  0.96  0.00  0.00
  WS02006280WS02006229    1.00   0.04  0.00  0.00  0.00  0.00  0.00  0.96  0.00  0.00
  WS02006229WS02006228    1.00   0.00  0.00  0.00  0.98  0.00  0.00  0.02  0.00  0.00
  WS02006256WS02006235    1.00   0.00  0.00  0.00  1.00  0.00  0.00  0.00  0.00  0.00
  WS02006253WS02006251    1.00   0.02  0.01  0.00  0.96  0.00  0.00  0.00  0.00  0.00
  WS02006252WS02006251    1.00   0.08  0.00  0.00  0.00  0.00  0.92  0.00  0.00  0.00
  WS02006251WS02006249    1.00   0.00  0.00  0.00  1.00  0.00  0.00  0.00  0.31  0.00
  WS02006249WS02006248    1.00   0.00  0.02  0.00  0.84  0.00  0.14  0.00  0.00  0.00
  WS02006248WS02006247    1.00   0.02  0.00  0.00  0.97  0.00  0.00  0.01  0.22  0.00
  WS02006247WS02006245    1.00   0.02  0.00  0.00  0.96  0.00  0.00  0.02  0.00  0.00
  WS02006245WS02006243    1.00   0.02  0.00  0.00  0.93  0.00  0.00  0.05  0.01  0.00
  WS02006243WS02006242    1.00   0.01  0.00  0.00  0.99  0.00  0.00  0.00  0.27  0.00
  WS02006242WS02006240    1.00   0.01  0.00  0.00  0.99  0.00  0.00  0.00  0.00  0.00
  WS02006240WS02006239    1.00   0.00  0.00  0.00  0.95  0.00  0.00  0.05  0.02  0.00
  WS02006239WS02006238    1.00   0.00  0.00  0.00  1.00  0.00  0.00  0.00  0.00  0.00
  WS02006238WS02006235    1.00   0.00  0.00  0.00  1.00  0.00  0.00  0.00  0.00  0.00
  WS02006235WS02006234    1.00   0.00  0.00  0.00  0.95  0.00  0.05  0.00  0.00  0.00
  WS02006234WS02006232    1.00   0.00  0.00  0.00  1.00  0.00  0.00  0.00  0.04  0.00
  WS02006232WS02006231    1.00   0.00  0.00  0.00  0.99  0.00  0.01  0.00  0.00  0.00
  WS02006231WS02006230    1.00   0.00  0.00  0.00  0.63  0.00  0.37  0.00  0.00  0.00
  WS02006230WS02006229    1.00   0.00  0.00  0.00  0.98  0.00  0.00  0.02  0.01  0.00
  WS02006228WS02006109    1.00   0.00  0.00  0.00  1.00  0.00  0.00  0.00  0.00  0.00
  WS02006116WS02004401    1.00   0.02  0.00  0.00  0.98  0.00  0.00  0.00  0.00  0.00
  WS02006115WS02006116    1.00   0.02  0.00  0.00  0.97  0.00  0.00  0.01  0.01  0.00
  WS02006113WS02006111    1.00   0.02  0.00  0.00  0.00  0.98  0.00  0.00  0.11  0.00
  WS02006112WS02006115    1.00   0.02  0.00  0.00  0.98  0.00  0.00  0.00  0.00  0.00
  WS02006111WS02006112    1.00   0.02  0.00  0.00  0.98  0.00  0.00  0.00  0.98  0.00
  WS02006110WS02006113    1.00   0.02  0.00  0.00  0.98  0.00  0.00  0.00  0.00  0.00
  WS02006109WS02006110    1.00   0.00  0.02  0.00  0.98  0.00  0.00  0.00  0.00  0.00
  WS02004411WS02004412    1.00   0.05  0.00  0.00  0.95  0.00  0.00  0.00  0.00  0.00
  WS02004401WS02004402    1.00   0.02  0.00  0.00  0.98  0.00  0.00  0.00  0.00  0.00
  WS02004413WS02003067    1.00   0.05  0.01  0.00  0.00  0.00  0.93  0.00  0.00  0.00
  WS02004412WS02004413    1.00   0.05  0.00  0.00  0.95  0.00  0.00  0.00  0.03  0.00
  WS02004410WS02004411    1.00   0.05  0.00  0.00  0.95  0.00  0.00  0.00  0.01  0.00
  WS02004409WS02004410    1.00   0.05  0.00  0.00  0.95  0.00  0.00  0.00  0.00  0.00
  WS02004407WS02004409    1.00   0.05  0.00  0.00  0.95  0.00  0.00  0.00  0.80  0.00
  WS02004406WS02004407    1.00   0.00  0.05  0.00  0.95  0.00  0.00  0.00  0.00  0.00
  WS02004405WS02004406    1.00   0.00  0.00  0.00  1.00  0.00  0.00  0.00  0.02  0.00
  WS02004404WS02004405    1.00   0.00  0.00  0.00  1.00  0.00  0.00  0.00  0.00  0.00
  WS02004403WS02004404    1.00   0.00  0.02  0.00  0.98  0.00  0.00  0.00  0.02  0.00
  WS02004402WS02004403    1.00   0.02  0.00  0.00  0.98  0.00  0.00  0.00  0.00  0.00
  WS02004139WS02001211    1.00   0.00  0.00  0.00  0.99  0.00  0.01  0.00  0.00  0.00
  WS02004138WS02004139    1.00   0.00  0.00  0.00  0.99  0.01  0.00  0.00  1.00  0.00
  WS02003067WS02003066    1.00   0.07  0.00  0.00  0.93  0.00  0.00  0.00  0.00  0.00
  WS02001213WS02003059    1.00   0.00  0.00  0.00  0.99  0.00  0.00  0.00  0.00  0.00
  WS02001212WS02001213    1.00   0.01  0.00  0.00  0.81  0.00  0.18  0.00  0.00  0.00
  WS02001211WS02001212    1.00   0.00  0.01  0.00  0.99  0.00  0.00  0.00  0.00  0.00
  WS02003072WS02003073    1.00   0.00  0.00  0.00  0.00  0.00  0.00  1.00  0.00  0.00
  WS02003069WS02003072    1.00   0.00  0.00  0.00  0.99  0.01  0.00  0.00  0.25  0.00
  WS02003060WS02003069    1.00   0.00  0.00  0.00  0.99  0.01  0.00  0.00  0.09  0.00
  WS02003059WS02003060    1.00   0.00  0.00  0.00  0.99  0.01  0.00  0.00  0.01  0.00
  HS02004901HS02004770    1.00   0.04  0.00  0.00  0.96  0.00  0.00  0.00  0.02  0.00
  HS02004876HS02004881    1.00   0.02  0.00  0.00  0.98  0.00  0.00  0.00  0.00  0.00
  HS02004870HS02004876    1.00   0.01  0.00  0.00  0.99  0.00  0.00  0.00  0.95  0.00
  HS02004842HS02004848    1.00   0.00  0.04  0.00  0.96  0.00  0.00  0.00  0.68  0.00
  HS02004837HS02004842    1.00   0.00  0.00  0.00  0.99  0.01  0.00  0.00  0.11  0.00
  HS02004830HS02004837    1.00   0.00  0.00  0.00  1.00  0.00  0.00  0.00  0.99  0.00
  HS02004824HS02004830    1.00   0.00  0.00  0.00  1.00  0.00  0.00  0.00  0.00  0.00
  HS02004817HS02004824    1.00   0.00  0.00  0.00  1.00  0.00  0.00  0.00  1.00  0.00
  HS02004770HS02004777    1.00   0.00  0.04  0.00  0.96  0.00  0.00  0.00  0.07  0.00
  HS02004799HS02004480    1.00   0.00  0.02  0.00  0.95  0.00  0.03  0.00  0.00  0.00
  HS02004792HS02004799    1.00   0.00  0.00  0.00  0.99  0.01  0.00  0.00  0.98  0.00
  HS02004788HS02004792    1.00   0.00  0.00  0.00  0.98  0.02  0.00  0.00  0.98  0.00
  HS02004785HS02004788    1.00   0.00  0.00  0.00  1.00  0.00  0.00  0.00  0.00  0.00
  HS02004777HS02004785    1.00   0.00  0.00  0.00  1.00  0.00  0.00  0.00  0.20  0.00
  HS02004480HS02004478    1.00   0.04  0.00  0.00  0.73  0.00  0.00  0.22  0.00  0.00
  HS02004479HS02004480    1.00   0.02  0.00  0.00  0.98  0.00  0.00  0.00  0.16  0.00
  HS02004862HS02004870    1.00   0.00  0.00  0.00  1.00  0.00  0.00  0.00  0.06  0.00
  HS02004848HS02004852    1.00   0.04  0.00  0.00  0.96  0.00  0.00  0.00  0.71  0.00
  HS02004856HS02004862    1.00   0.00  0.06  0.00  0.94  0.00  0.00  0.00  0.74  0.00
  HS02004852HS02004856    1.00   0.04  0.01  0.00  0.95  0.00  0.00  0.00  0.83  0.00
  HS02004802HS02004478    1.00   0.04  0.01  0.00  0.95  0.00  0.00  0.00  0.01  0.00
  HS02004478WS02006287    1.00   0.05  0.00  0.00  0.86  0.09  0.00  0.00  0.77  0.00
  HS02004817HS02004807    1.00   0.00  0.04  0.00  0.96  0.00  0.00  0.00  0.00  0.00
  HS02004807HS02004802    1.00   0.04  0.00  0.00  0.96  0.00  0.00  0.00  0.01  0.00
  YS02001759YS02001757    1.00   0.00  0.00  0.00  1.00  0.00  0.00  0.00  0.17  0.00
  YS02001762YS02001759    1.00   0.00  0.00  0.00  1.00  0.00  0.00  0.00  0.04  0.00
  YS02001765YS02001762    1.00   0.00  0.00  0.00  1.00  0.00  0.00  0.00  0.22  0.00
  YS02001770YS02001767    1.00   0.00  0.00  0.00  1.00  0.00  0.00  0.00  0.00  0.00
  YS02001774YS02001770    1.00   0.00  0.05  0.00  0.95  0.00  0.00  0.00  0.07  0.00
  YS02001779YS02001774    1.00   0.00  0.00  0.00  1.00  0.00  0.00  0.00  0.26  0.00
  YS02001649YS02001757    1.00   0.00  0.00  0.00  1.00  0.00  0.00  0.00  0.19  0.00
  YS02001767YS02001765    1.00   0.00  0.00  0.00  1.00  0.00  0.00  0.00  0.01  0.00
  YS02006561YS02001783    1.00   0.07  0.00  0.00  0.00  0.93  0.00  0.00  0.73  0.00
  YS02001783YS02001784    1.00   0.00  0.07  0.00  0.93  0.00  0.00  0.00  0.00  0.00
  YS02001784YS02001785    1.00   0.00  0.00  0.00  1.00  0.00  0.00  0.00  0.25  0.00
  YS02001788YS02001790    1.00   0.00  0.00  0.00  0.07  0.93  0.00  0.00  0.75  0.00
  YS02001790YS02001791    1.00   0.00  0.00  0.00  0.02  0.98  0.00  0.00  0.56  0.00
  YS02001791YS02001793    1.00   0.00  0.00  0.00  0.01  0.99  0.00  0.00  0.02  0.00
  YS02001910YS02001907    1.00   0.00  0.00  0.00  0.98  0.00  0.00  0.02  0.13  0.00
  YS02001786YS02001788    1.00   0.00  0.00  0.00  0.07  0.93  0.00  0.00  0.00  0.00
  YS02001915YS02001910    1.00   0.00  0.00  0.00  1.00  0.00  0.00  0.00  0.24  0.00
  YS02001918YS02001915    1.00   0.00  0.01  0.00  0.99  0.00  0.00  0.00  0.82  0.00
  YS02001923YS02001920    1.00   0.00  0.00  0.00  1.00  0.00  0.00  0.00  1.00  0.00
  YS02001926YS02001923    1.00   0.00  0.03  0.00  0.00  0.00  0.97  0.00  0.00  0.00
  YS02001929YS02001926    1.00   0.00  0.04  0.00  0.96  0.00  0.00  0.00  0.87  0.00
  YS02001920YS02001918    1.00   0.00  0.01  0.00  0.99  0.00  0.00  0.00  0.00  0.00
  YS02001629YS02163301    1.00   0.06  0.00  0.00  0.94  0.00  0.00  0.00  0.00  0.00
  YS02001619YS02001622    1.00   0.04  0.00  0.00  0.96  0.00  0.00  0.00  0.00  0.00
  YS02001622YS02001625    1.00   0.04  0.00  0.00  0.96  0.00  0.00  0.00  0.13  0.00
  YS02001625YS02001629    1.00   0.04  0.03  0.00  0.91  0.00  0.02  0.00  0.00  0.00
  YS02163301YS02001633    1.00   0.00  0.06  0.00  0.94  0.00  0.00  0.00  0.00  0.00
  YS02163601YS02164001    1.00   0.00  0.03  0.00  0.97  0.00  0.00  0.00  0.00  0.00
  YS02164001YS02001641    1.00   0.01  0.02  0.00  0.97  0.00  0.00  0.00  0.07  0.00
  YS02001641YS02001644    1.00   0.00  0.01  0.00  0.99  0.00  0.00  0.00  0.00  0.00
  YS02001647YS02001649    1.00   0.00  0.06  0.00  0.94  0.00  0.00  0.00  0.01  0.00
  YS02006553YS02006556    1.00   0.02  0.00  0.00  0.98  0.00  0.00  0.00  0.03  0.00
  YS02006556YS02006558    1.00   0.00  0.01  0.00  0.99  0.00  0.00  0.00  0.00  0.00
  YSB6556YSB1171          1.00   0.02  0.02  0.00  0.96  0.00  0.00  0.00  0.00  0.00
  YS02001907YS02006553    1.00   0.00  0.02  0.00  0.98  0.00  0.00  0.00  0.00  0.00
  YS02006558YS02006561    1.00   0.06  0.00  0.00  0.00  0.93  0.00  0.00  0.69  0.00
  YS02001633YS02163601    1.00   0.00  0.01  0.00  0.99  0.00  0.00  0.00  0.20  0.00
  YS02001644YS02001647    1.00   0.00  0.06  0.00  0.94  0.00  0.00  0.00  0.00  0.00
  YS02001745YS02001748    1.00   0.00  0.00  0.00  0.86  0.02  0.00  0.13  0.47  0.00
  YS02001748YS02001751    1.00   0.00  0.00  0.00  0.97  0.03  0.00  0.00  0.24  0.00
  YS02001751YS02001754    1.00   0.00  0.00  0.00  0.93  0.00  0.00  0.07  0.02  0.00
  YS02001754YS02001757    1.00   0.00  0.00  0.00  0.99  0.01  0.00  0.00  0.26  0.00
  YS02001882YS02001884    1.00   0.05  0.00  0.00  0.94  0.00  0.00  0.00  0.00  0.00
  YS02001884YS02001887    1.00   0.03  0.01  0.00  0.96  0.00  0.00  0.00  0.00  0.00
  YS02001890YS02001895    1.00   0.00  0.06  0.00  0.94  0.00  0.00  0.00  0.00  0.00
  YS02001895YS02001898    1.00   0.06  0.00  0.00  0.93  0.00  0.01  0.00  0.00  0.00
  YS02001898YS02001901    1.00   0.06  0.00  0.00  0.94  0.00  0.00  0.00  0.02  0.00
  YS02001901YS02001904    1.00   0.06  0.00  0.00  0.94  0.00  0.00  0.00  0.00  0.00
  YS02001904YS02001907    1.00   0.00  0.05  0.00  0.94  0.00  0.00  0.00  0.00  0.00
  YS02001887YS02001890    1.00   0.00  0.00  0.00  0.98  0.00  0.02  0.00  0.00  0.00
  YS02001652YS02001649    1.00   0.00  0.00  0.00  1.00  0.00  0.00  0.00  0.26  0.00
  YS02001655YS02001652    1.00   0.00  0.00  0.00  0.93  0.00  0.00  0.07  0.02  0.00
  YS02001658YS02001655    1.00   0.00  0.05  0.00  0.92  0.03  0.00  0.00  0.11  0.00
  YS02001661YS02001658    1.00   0.05  0.00  0.00  0.85  0.10  0.00  0.00  0.38  0.00
  YS02001664YS02001661    1.00   0.04  0.00  0.00  0.74  0.22  0.00  0.00  0.86  0.00
  YSB1154YSB6556          1.00   0.04  0.00  0.00  0.96  0.00  0.00  0.00  0.02  0.00
  YSB1174YSB1171          1.00   0.02  0.01  0.00  0.97  0.00  0.00  0.00  0.00  0.00
  YSB1171HS02004479       1.00   0.02  0.00  0.00  0.97  0.00  0.00  0.00  0.13  0.00
  HS02004881HS02006253    1.00   0.03  0.00  0.00  0.71  0.02  0.00  0.25  0.55  0.00
  YS02001793JiankangQianchi    1.00   0.00  0.00  0.00  0.23  0.76  0.00  0.00  0.19  0.00
  YS02001757CaochengTiaoxuchi    1.00   0.00  0.08  0.00  0.92  0.00  0.00  0.00  0.00  0.00
  WSF200WS02003060        1.00   0.00  0.04  0.00  0.72  0.24  0.00  0.00  0.38  0.00
  1                       1.00   0.00  0.00  0.00  0.00  1.00  0.00  0.00  0.38  0.00
  2                       1.00   0.64  0.00  0.00  0.00  0.36  0.00  0.00  0.06  0.00
  3                       1.00   0.12  0.00  0.00  0.00  0.88  0.00  0.00  0.03  0.00
  4                       1.00   1.00  0.00  0.00  0.00  0.00  0.00  0.00  0.00  0.00
  
  
  *************************
  Conduit Surcharge Summary
  *************************
  
  ----------------------------------------------------------------------------
                                                           Hours        Hours 
                         --------- Hours Full --------   Above Full   Capacity
  Conduit                Both Ends  Upstream  Dnstream   Normal Flow   Limited
  ----------------------------------------------------------------------------
  WS02006229WS02006228        1.90      2.33      1.90      4.30         1.90
  WS02006256WS02006235        5.65      5.65      7.51      2.77         0.01
  WS02006252WS02006251        1.70      1.70      2.42      2.24         0.01
  WS02006251WS02006249        0.01      0.01      0.01      1.67         0.01
  WS02006249WS02006248        0.01      0.01      0.01      3.92         0.01
  WS02006247WS02006245        0.01      0.01      0.01      4.36         0.01
  WS02006245WS02006243        0.01      0.01      0.01      0.02         0.01
  WS02006243WS02006242        0.01      0.01      1.24      0.01         0.01
  WS02006242WS02006240        0.01      0.01      1.70      2.35         0.01
  WS02006240WS02006239        0.01      0.01      0.01      0.19         0.01
  WS02006239WS02006238        1.40      1.42      1.54      0.45         0.34
  WS02006238WS02006235        1.24      1.24      1.90      0.01         0.01
  WS02006235WS02006234        0.01      0.01      0.89      5.68         0.01
  WS02006234WS02006232        0.01      0.01      1.96      0.01         0.01
  WS02006232WS02006231        0.01      0.01      1.96      0.01         0.01
  WS02006231WS02006230        0.01      0.01      0.01      5.64         0.01
  WS02006230WS02006229        3.26      4.08      3.26      5.70         3.26
  WS02006228WS02006109        2.10      2.81      2.10      5.00         2.10
  WS02006112WS02006115        0.01      0.01      0.08      0.01         0.01
  WS02006111WS02006112        0.01      0.01      4.43      0.01         0.01
  WS02006110WS02006113        0.01      0.01      2.57      0.01         0.01
  WS02006109WS02006110        0.01      0.01      2.80      0.01         0.01
  WS02004404WS02004405        0.01      0.01      0.01      5.62         0.01
  WS02003072WS02003073        0.01      0.01      0.01      4.67         0.01
  YS02001759YS02001757        5.01      5.01      5.34      0.01         0.01
  YS02001762YS02001759        4.27      4.27      5.01      0.01         0.01
  YS02001765YS02001762        3.98      3.98      4.27      0.01         0.01
  YS02001770YS02001767        3.64      3.64      3.69      0.01         0.43
  YS02001774YS02001770        3.10      3.10      4.15      0.01         0.01
  YS02001779YS02001774        0.10      0.10      4.15      0.01         0.01
  YS02001649YS02001757        4.38      4.38      5.34      0.01         0.01
  YS02001767YS02001765        3.69      3.69      3.98      0.01         0.01
  YS02001629YS02163301        2.97      2.97      3.22      0.01         0.01
  YS02001622YS02001625        0.01      0.01      1.71      0.01         0.01
  YS02001625YS02001629        0.01      0.01      1.71      0.01         0.01
  YS02163301YS02001633        3.22      3.22      3.98      0.01         0.01
  YS02163601YS02164001        3.96      3.96      4.30      0.01         0.01
  YS02164001YS02001641        3.96      3.96      4.08      0.01         0.01
  YS02001641YS02001644        4.08      4.08      4.10      0.01         0.29
  YS02001647YS02001649        1.56      1.56      4.38      0.01         0.01
  YS02001633YS02163601        3.86      3.86      4.30      0.01         0.01
  YS02001644YS02001647        1.56      1.56      4.10      0.01         0.01
  YS02001751YS02001754        0.01      0.01      0.30      0.01         0.01
  YS02001754YS02001757        1.58      1.58      5.34      0.01         0.01
  YS02001652YS02001649        1.81      1.81      4.38      0.01         0.01
  YS02001655YS02001652        0.01      0.01      1.11      0.01         0.01
  YS02001793JiankangQianchi        0.01      0.01      0.80      0.01         0.01
  YS02001757CaochengTiaoxuchi        0.01      0.01      5.34      0.01         0.01
  3                           0.01      0.01      0.01      0.01         0.01
  
  
  ***************
  Pumping Summary
  ***************
  
  ---------------------------------------------------------------------------------------------------------
                                                  Min       Avg       Max     Total     Power    % Time Off
                        Percent   Number of      Flow      Flow      Flow    Volume     Usage    Pump Curve
  Pump                 Utilized   Start-Ups       LPS       LPS       LPS  10^6 ltr     Kw-hr    Low   High
  ---------------------------------------------------------------------------------------------------------
  CC-Pump-1               51.69           7      0.00    137.36    200.00     2.047      6.95    0.0    9.3
  CC-Pump-2               60.21           5      0.00    155.59    200.00     2.647      8.89    0.0   18.6
  JK-Pump-1               74.48           6      0.00    125.64    300.00     1.881     33.48    0.0    0.0
  JK-Pump-2               95.74           5      0.00    125.43    300.00     2.538     45.05    0.0    0.0
  XR-Pump-1               80.84           8      0.00     67.09     95.00     1.511     23.91    0.0    0.0
  XR-Pump-2               82.97           6      0.00     70.91     95.00     1.653     25.34    0.0    0.0
  XR-Pump-3               89.35           8      0.00     69.04     95.00     1.739     26.89    0.0    0.0
  XR-Pump-4               91.49           6      0.00     73.25     95.00     1.995     31.15    0.0    0.0
  

  Analysis begun on:  Tue Dec 21 15:14:04 2021
  Analysis ended on:  Tue Dec 21 15:14:07 2021
  Total elapsed time: 00:00:03