
  EPA STORM WATER MANAGEMENT MODEL - VERSION 5.1 (Build 5.3.0.dev0)
  --------------------------------------------------------------

  WARNING 04: minimum elevation drop used for Conduit WS02004404WS02004405
  WARNING 03: negative offset ignored for Link YS02001904YS02001907
  
  *********************************************************
  NOTE: The summary statistics displayed in this report are
  based on results found at every computational time step,  
  not just on results from each reporting time step.
  *********************************************************
  
  ****************
  Analysis Options
  ****************
  Flow Units ............... LPS
  Process Models:
    Rainfall/Runoff ........ YES
    RDII ................... NO
    Snowmelt ............... NO
    Groundwater ............ NO
    Flow Routing ........... YES
    Ponding Allowed ........ NO
    Water Quality .......... NO
  Infiltration Method ...... HORTON
  Flow Routing Method ...... DYNWAVE
  Surcharge Method ......... EXTRAN
  Starting Date ............ 08/28/2015 08:00:00
  Ending Date .............. 08/28/2015 15:50:00
  Antecedent Dry Days ...... 8.0
  Report Time Step ......... 00:01:00
  Wet Time Step ............ 00:01:00
  Dry Time Step ............ 00:01:00
  Routing Time Step ........ 5.00 sec
  Variable Time Step ....... YES
  Maximum Trials ........... 8
  Number of Threads ........ 4
  Head Tolerance ........... 0.001500 m
  
  
  **************************        Volume         Depth
  Runoff Quantity Continuity     hectare-m            mm
  **************************     ---------       -------
  Total Precipitation ......         3.517         7.699
  Evaporation Loss .........         0.000         0.000
  Infiltration Loss ........         0.893         1.955
  Surface Runoff ...........         1.682         3.682
  Final Storage ............         0.943         2.064
  Continuity Error (%) .....        -0.018
  
  
  **************************        Volume        Volume
  Flow Routing Continuity        hectare-m      10^6 ltr
  **************************     ---------     ---------
  Dry Weather Inflow .......         0.616         6.165
  Wet Weather Inflow .......         1.681        16.806
  Groundwater Inflow .......         0.000         0.000
  RDII Inflow ..............         0.000         0.000
  External Inflow ..........         0.102         1.024
  External Outflow .........         1.860        18.600
  Flooding Loss ............         0.165         1.653
  Evaporation Loss .........         0.000         0.000
  Exfiltration Loss ........         0.000         0.000
  Initial Stored Volume ....         0.076         0.761
  Final Stored Volume ......         0.557         5.569
  Continuity Error (%) .....        -4.313
  
  
  *************************
  Highest Continuity Errors
  *************************
  Node YS02001774 (31.11%)
  Node HS02004842 (23.63%)
  Node JK-storage (-20.05%)
  Node YS02001884 (15.36%)
  Node YSB1171 (5.13%)
  
  
  ***************************
  Time-Step Critical Elements
  ***************************
  Link WS02006252WS02006251 (48.74%)
  Link 3 (39.23%)
  Link WS02006238WS02006235 (3.62%)
  Link WS02006280WS02006229 (1.62%)
  Link 2 (1.29%)
  
  
  ********************************
  Highest Flow Instability Indexes
  ********************************
  Link WS02006113WS02006111 (37)
  Link WS02006111WS02006112 (26)
  Link YS02001619YS02001622 (23)
  Link YS02001779YS02001774 (23)
  Link YS02001774YS02001770 (21)
  
  
  *************************
  Routing Time Step Summary
  *************************
  Minimum Time Step           :     0.50 sec
  Average Time Step           :     0.87 sec
  Maximum Time Step           :     5.00 sec
  Percent in Steady State     :    -0.00
  Average Iterations per Step :     4.93
  Percent Not Converging      :    35.86
  
  
  ***************************
  Subcatchment Runoff Summary
  ***************************
  
  ------------------------------------------------------------------------------------------------------------------------------
                            Total      Total      Total      Total     Imperv       Perv      Total       Total     Peak  Runoff
                           Precip      Runon       Evap      Infil     Runoff     Runoff     Runoff      Runoff   Runoff   Coeff
  Subcatchment                 mm         mm         mm         mm         mm         mm         mm    10^6 ltr      LPS
  ------------------------------------------------------------------------------------------------------------------------------
  sub0                       7.70       0.00       0.00       0.54       5.90       0.00       5.90        0.00     2.28   0.766
  sub1                       7.70       0.00       0.00       0.85       5.60       0.00       5.60        0.04    12.01   0.727
  sub2                       7.70       0.00       0.00       2.85       3.94       0.00       3.94        0.04    10.62   0.512
  sub3                       7.70       0.00       0.00       2.85       3.91       0.00       3.91        0.09    21.84   0.508
  sub4                       7.70       0.00       0.00       0.85       5.45       0.00       5.45        0.11    24.49   0.708
  sub5                       7.70       0.00       0.00       0.54       5.85       0.00       5.85        0.07    21.36   0.760
  sub7                       7.70       0.00       0.00       0.69       5.75       0.00       5.75        0.02     7.53   0.747
  sub8                       7.70       0.00       0.00       0.69       5.74       0.00       5.74        0.04    13.30   0.746
  sub9                       7.70       0.00       0.00       0.69       5.74       0.00       5.74        0.03     9.86   0.746
  sub10                      7.70       0.00       0.00       0.62       5.79       0.00       5.79        0.06    21.33   0.752
  sub11                      7.70       0.00       0.00       0.62       5.81       0.00       5.81        0.07    25.01   0.754
  sub12                      7.70       0.00       0.00       1.00       5.51       0.00       5.51        0.05    21.13   0.716
  sub14                      7.70       0.00       0.00       0.69       5.74       0.00       5.74        0.05    19.27   0.745
  sub15                      7.70       0.00       0.00       2.31       4.41       0.00       4.41        0.08    26.13   0.573
  sub16                      7.70       0.00       0.00       2.54       4.24       0.00       4.24        0.04    18.58   0.551
  sub17                      7.70       0.00       0.00       2.46       4.30       0.00       4.30        0.04    15.03   0.559
  sub22                      7.70       0.00       0.00       3.31       3.60       0.00       3.60        0.23    85.60   0.468
  sub23                      7.70       0.00       0.00       2.85       3.98       0.00       3.98        0.19    72.88   0.517
  sub60                      7.70       0.00       0.00       0.92       4.16       0.00       4.16        1.26   124.62   0.540
  sub61                      7.70       0.00       0.00       1.31       4.36       0.00       4.36        1.34   156.18   0.566
  sub62                      7.70       0.00       0.00       0.62       4.70       0.00       4.70        1.44   159.65   0.610
  sub63                      7.70       0.00       0.00       2.23       3.85       0.00       3.85        1.17   145.76   0.500
  sub64                      7.70       0.00       0.00       1.15       3.98       0.00       3.98        1.21   118.39   0.517
  sub65                      7.70       0.00       0.00       1.00       4.03       0.00       4.03        1.24   120.16   0.524
  sub66                      7.70       0.00       0.00       2.23       3.45       0.00       3.45        1.06   108.45   0.448
  sub67                      7.70       0.00       0.00       0.62       5.08       0.00       5.08        1.57   204.88   0.660
  sub68                      7.70       0.00       0.00       1.08       4.61       0.00       4.61        1.42   172.66   0.599
  sub69                      7.70       0.00       0.00       1.15       4.90       0.00       4.90        1.14   171.52   0.636
  sub70                      7.70       5.00       0.00       4.32       6.24       0.00       6.24        1.43   142.17   0.491
  sub71                      7.70       0.00       0.00       0.62       4.52       0.00       4.52        1.07   111.46   0.588
  sub72                      7.70       0.00       0.00       0.54       3.34       0.00       3.34        0.68    53.99   0.434
  sub73                      7.70       6.07       0.00       4.68       6.53       0.00       6.53        1.53   124.36   0.474
  sub74                      7.70       0.00       0.00       5.77       1.47       0.00       1.47        0.59    95.72   0.191
  
  
  ******************
  Node Depth Summary
  ******************
  
  ---------------------------------------------------------------------------------
                                 Average  Maximum  Maximum  Time of Max    Reported
                                   Depth    Depth      HGL   Occurrence   Max Depth
  Node                 Type       Meters   Meters   Meters  days hr:min      Meters
  ---------------------------------------------------------------------------------
  WS02001211           JUNCTION     0.66     0.78     5.61     0  05:08        0.78
  WS02001212           JUNCTION     0.39     0.48     5.55     0  05:07        0.48
  WS02001213           JUNCTION     0.63     0.72     5.48     0  05:07        0.72
  WS02003069           JUNCTION     0.45     0.55     5.14     0  02:43        0.55
  WS02003072           JUNCTION     0.52     0.61     4.98     0  02:43        0.61
  WS02003073           JUNCTION     0.31     0.37     4.44     0  02:44        0.37
  WS02003060           JUNCTION     0.40     0.49     5.42     0  02:42        0.49
  WS02003066           JUNCTION     0.24     0.31     5.86     0  02:27        0.31
  WS02003059           JUNCTION     0.69     0.77     5.46     0  05:06        0.77
  WS02003067           JUNCTION     0.59     0.72     6.04     0  02:27        0.72
  WS02004401           JUNCTION     0.69     0.90     6.90     0  02:23        0.90
  WS02004402           JUNCTION     0.72     0.93     6.89     0  02:23        0.93
  WS02004403           JUNCTION     0.74     0.94     6.87     0  02:23        0.94
  WS02004404           JUNCTION     0.81     1.02     6.87     0  02:24        1.01
  WS02004406           JUNCTION     0.82     0.99     6.82     0  02:23        0.99
  WS02004409           JUNCTION     0.51     0.71     6.48     0  02:27        0.71
  WS02004410           JUNCTION     0.53     0.72     6.44     0  02:26        0.72
  WS02004411           JUNCTION     0.54     0.72     6.40     0  02:26        0.72
  WS02004412           JUNCTION     0.56     0.73     6.37     0  02:27        0.73
  WS02004413           JUNCTION     0.72     0.88     6.35     0  02:27        0.88
  WS02004405           JUNCTION     0.81     1.00     6.85     0  02:23        0.99
  WS02006109           JUNCTION     0.77     1.12     7.74     0  02:17        1.07
  WS02006110           JUNCTION     0.77     1.03     7.61     0  02:17        0.97
  WS02006111           JUNCTION     0.23     0.31     7.02     0  02:18        0.31
  WS02006112           JUNCTION     0.86     1.17     7.05     0  02:22        1.11
  WS02006113           JUNCTION     0.35     0.50     7.39     0  02:18        0.49
  WS02006115           JUNCTION     0.58     0.81     6.95     0  02:22        0.81
  WS02006116           JUNCTION     0.66     0.89     6.93     0  02:22        0.89
  WS02006230           JUNCTION     0.75     1.28     8.02     0  02:17        1.17
  WS02006231           JUNCTION     0.50     1.10     8.22     0  02:17        0.83
  WS02006232           JUNCTION     0.64     1.19     8.23     0  02:17        0.94
  WS02006234           JUNCTION     0.56     1.02     8.17     0  02:17        0.86
  WS02006235           JUNCTION     0.60     1.01     8.17     0  02:17        0.87
  WS02006238           JUNCTION     0.62     1.04     8.18     0  02:17        0.89
  WS02006240           JUNCTION     0.52     0.93     8.23     0  02:17        0.85
  WS02006242           JUNCTION     0.58     1.09     8.36     0  02:17        0.91
  WS02006243           JUNCTION     0.46     1.44     8.86     0  02:17        0.80
  WS02006245           JUNCTION     0.44     0.78     8.26     0  02:17        0.75
  WS02006247           JUNCTION     0.46     0.79     8.29     0  02:17        0.71
  WS02006248           JUNCTION     0.40     0.68     8.26     0  02:18        0.64
  WS02006249           JUNCTION     0.43     0.66     8.26     0  02:18        0.64
  WS02006239           JUNCTION     0.58     1.09     8.30     0  02:17        0.87
  WS02006251           JUNCTION     0.43     0.70     8.37     0  02:19        0.69
  WS02006252           JUNCTION     0.38     0.59     8.83     0  04:36        0.59
  WS02006253           JUNCTION     0.45     0.73     8.37     0  02:19        0.73
  WS02006256           JUNCTION     1.05     1.20     8.13     0  04:15        1.20
  WS02004138           JUNCTION     0.15     0.19     7.44     0  01:40        0.19
  WS02004407           JUNCTION     0.23     0.31     6.63     0  02:23        0.31
  WS02006228           JUNCTION     0.77     1.19     7.84     0  02:17        1.16
  WS02006229           JUNCTION     0.75     1.21     7.90     0  02:17        1.19
  WS02006280           JUNCTION     0.06     0.18     8.45     0  02:14        0.18
  WS02006284           JUNCTION     0.35     0.53     8.93     0  02:14        0.53
  WS02006287           JUNCTION     0.08     0.27     9.22     0  02:13        0.27
  WSF200               JUNCTION     0.23     0.32     5.55     0  02:39        0.32
  HS02004901           JUNCTION     0.11     0.28    10.10     0  02:11        0.28
  HS02004881           JUNCTION     0.01     0.03     9.06     0  02:14        0.03
  HS02004876           JUNCTION     0.04     0.11     9.14     0  02:08        0.11
  HS02004870           JUNCTION     0.01     0.06     9.34     0  02:14        0.06
  HS02004862           JUNCTION     0.01     0.06     9.45     0  02:15        0.06
  HS02004856           JUNCTION     0.07     0.12     9.54     0  02:14        0.12
  HS02004852           JUNCTION     0.01     0.04     9.55     0  02:15        0.04
  HS02004848           JUNCTION     0.01     0.04     9.64     0  02:14        0.04
  HS02004842           JUNCTION     0.33     0.37     9.64     0  02:14        0.37
  HS02004837           JUNCTION     0.03     0.06     9.64     0  02:14        0.06
  HS02004830           JUNCTION     0.04     0.07     9.54     0  02:14        0.07
  HS02004824           JUNCTION     0.02     0.05     9.45     0  02:17        0.05
  HS02004817           JUNCTION     0.43     0.57     9.42     0  02:14        0.57
  HS02004807           JUNCTION     0.12     0.25     9.42     0  02:14        0.25
  HS02004802           JUNCTION     0.15     0.28     9.41     0  02:14        0.28
  HS02004799           JUNCTION     0.10     0.32     9.53     0  02:12        0.32
  HS02004792           JUNCTION     0.03     0.13     9.66     0  02:12        0.13
  HS02004788           JUNCTION     0.02     0.10    10.00     0  02:12        0.10
  HS02004785           JUNCTION     0.04     0.17    10.07     0  02:12        0.17
  HS02004777           JUNCTION     0.14     0.29    10.09     0  02:12        0.29
  HS02004770           JUNCTION     0.11     0.27    10.10     0  02:11        0.27
  HS02004480           JUNCTION     0.07     0.26     9.50     0  02:13        0.26
  HS02004479           JUNCTION     0.10     0.29     9.50     0  02:13        0.29
  HS02004478           JUNCTION     0.05     0.17     9.40     0  02:14        0.17
  YS02001745           JUNCTION     0.49     0.76     8.28     0  05:36        0.75
  YS02001748           JUNCTION     0.88     1.21     8.28     0  05:34        1.20
  YS02001751           JUNCTION     1.06     1.86     8.74     0  03:27        1.40
  YS02001754           JUNCTION     1.31     1.87     8.47     0  03:27        1.68
  YS02001762           JUNCTION     1.51     1.91     8.31     0  05:32        1.90
  YS02001765           JUNCTION     1.46     1.86     8.31     0  05:38        1.85
  YS02001767           JUNCTION     1.43     1.82     8.31     0  05:31        1.81
  YS02001770           JUNCTION     1.42     1.83     8.32     0  05:38        1.81
  YS02001774           JUNCTION     1.49     1.90     8.32     0  05:38        1.90
  YS02001779           JUNCTION     1.24     1.64     8.33     0  02:59        1.63
  YS02001882           JUNCTION     0.34     0.60     7.32     0  02:40        0.59
  YS02001884           JUNCTION     0.43     0.69     7.31     0  02:39        0.69
  YS02001759           JUNCTION     1.54     1.94     8.30     0  05:38        1.93
  YS02001887           JUNCTION     0.51     0.78     7.31     0  02:40        0.77
  YS02001890           JUNCTION     0.54     0.80     7.31     0  02:39        0.80
  YS02001898           JUNCTION     0.31     0.56     7.29     0  02:40        0.56
  YS02001901           JUNCTION     0.43     0.68     7.29     0  02:47        0.68
  YS02001904           JUNCTION     0.41     0.66     7.29     0  02:47        0.66
  YS02001907           JUNCTION     0.74     1.00     7.29     0  02:43        1.00
  YS02001910           JUNCTION     0.52     0.79     7.29     0  02:46        0.78
  YS02001915           JUNCTION     0.32     0.57     7.29     0  02:52        0.57
  YS02001918           JUNCTION     0.11     0.22     7.29     0  02:40        0.22
  YS02001619           JUNCTION     1.03     1.51     8.44     0  03:59        1.50
  YS02001629           JUNCTION     1.38     1.85     8.40     0  03:58        1.85
  YS02001641           JUNCTION     1.48     1.92     8.35     0  05:31        1.91
  YS02001644           JUNCTION     1.49     1.91     8.34     0  05:31        1.90
  YS02001652           JUNCTION     1.33     2.06     8.66     0  03:22        1.71
  YS02001655           JUNCTION     1.09     2.14     8.99     0  03:06        1.45
  YS02001920           JUNCTION     0.20     0.29     7.30     0  02:46        0.29
  YS02001923           JUNCTION     0.08     0.11     7.37     0  03:01        0.11
  YS02001926           JUNCTION     0.17     0.21     7.66     0  03:01        0.21
  YS02001929           JUNCTION     0.08     0.11     7.80     0  03:01        0.11
  YS02001658           JUNCTION     0.83     1.65     8.79     0  04:09        1.17
  YS02001661           JUNCTION     0.60     0.92     8.32     0  05:35        0.90
  YS02001664           JUNCTION     0.19     0.42     8.34     0  05:35        0.41
  YS02001622           JUNCTION     1.05     1.52     8.43     0  03:58        1.52
  YS02001633           JUNCTION     1.47     1.93     8.38     0  05:31        1.92
  YS02001649           JUNCTION     1.52     1.93     8.32     0  04:09        1.91
  YS02001757           JUNCTION     1.64     2.04     8.30     0  05:34        2.03
  YS02001895           JUNCTION     0.30     0.55     7.30     0  02:39        0.55
  YS02001625           JUNCTION     1.33     1.78     8.38     0  03:58        1.78
  YS02163301           JUNCTION     1.41     1.88     8.40     0  04:00        1.87
  YS02163601           JUNCTION     1.52     1.97     8.37     0  05:31        1.96
  YS02164001           JUNCTION     1.46     1.91     8.36     0  05:31        1.89
  YS02001647           JUNCTION     1.32     1.73     8.34     0  04:09        1.71
  YSB1154              JUNCTION     0.24     0.44     9.50     0  02:13        0.44
  YSB6556              JUNCTION     0.14     0.33     9.50     0  02:12        0.33
  YSB1174              JUNCTION     0.19     0.39     9.50     0  02:13        0.39
  YSB1171              JUNCTION     0.40     0.60     9.50     0  02:13        0.60
  YS02006553           JUNCTION     0.74     1.03     7.31     0  02:48        1.00
  YS02006561           JUNCTION     0.17     0.30     6.96     0  02:32        0.29
  YS02006556           JUNCTION     0.71     0.98     7.29     0  02:47        0.98
  YS02006558           JUNCTION     0.76     1.03     7.29     0  02:37        1.02
  YS02001783           JUNCTION     0.34     0.90     7.04     0  02:33        0.78
  YS02001784           JUNCTION     0.37     0.99     7.06     0  02:33        0.82
  YS02001786           JUNCTION     0.34     0.94     6.97     0  02:33        0.80
  YS02001788           JUNCTION     0.30     0.97     6.94     0  02:33        0.79
  YS02001790           JUNCTION     0.40     1.95     7.60     0  02:31        1.06
  YS02001791           JUNCTION     0.38     1.41     6.88     0  02:31        1.18
  YS02001793           JUNCTION     0.51     1.88     6.72     0  02:29        1.78
  WS02004139           JUNCTION     0.61     0.72     5.63     0  05:08        0.72
  WSC                  OUTFALL      0.31     0.37     1.04     0  02:45        0.37
  3                    OUTFALL      0.09     0.20     6.20     0  04:15        0.20
  4                    OUTFALL      0.03     0.16     7.16     0  02:18        0.14
  5                    OUTFALL      0.00     0.00     5.00     0  00:00        0.00
  JK-storage           STORAGE      1.75     5.80     6.60     0  02:31        5.80
  CC-storage           STORAGE      0.88     1.26     8.26     0  05:36        1.26
  XR-storage           STORAGE      6.88     7.72     5.72     0  03:04        7.72
  
  
  *******************
  Node Inflow Summary
  *******************
  
  -------------------------------------------------------------------------------------------------
                                  Maximum  Maximum                  Lateral       Total        Flow
                                  Lateral    Total  Time of Max      Inflow      Inflow     Balance
                                   Inflow   Inflow   Occurrence      Volume      Volume       Error
  Node                 Type           LPS      LPS  days hr:min    10^6 ltr    10^6 ltr     Percent
  -------------------------------------------------------------------------------------------------
  WS02001211           JUNCTION      7.35   387.81     0  05:10       0.207        7.04       0.527
  WS02001212           JUNCTION      0.00   387.95     0  05:10           0        7.01       0.272
  WS02001213           JUNCTION      0.00   388.14     0  05:10           0        6.99       0.343
  WS02003069           JUNCTION      0.32   853.85     0  02:43     0.00902        15.1       0.194
  WS02003072           JUNCTION      0.00   853.48     0  02:43           0          15       0.241
  WS02003073           JUNCTION      1.82   855.12     0  02:44      0.0514        15.1       0.275
  WS02003060           JUNCTION     16.53   853.68     0  02:42       0.466        15.1       0.184
  WS02003066           JUNCTION      0.00   593.59     0  02:27           0        7.71       0.052
  WS02003059           JUNCTION      0.00   388.42     0  05:10           0        6.97       0.558
  WS02003067           JUNCTION      0.00   593.33     0  02:27           0        7.72       0.110
  WS02004401           JUNCTION      0.00   612.54     0  02:19           0        7.92       0.227
  WS02004402           JUNCTION      0.00   601.66     0  02:21           0        7.91       0.218
  WS02004403           JUNCTION      0.00   601.85     0  02:22           0        7.89       0.203
  WS02004404           JUNCTION      0.16   603.79     0  02:23     0.00457        7.88       0.158
  WS02004406           JUNCTION      0.00   600.69     0  02:23           0        7.85       0.383
  WS02004409           JUNCTION      0.00   599.13     0  02:23           0        7.81       0.171
  WS02004410           JUNCTION      0.00   596.26     0  02:25           0         7.8       0.200
  WS02004411           JUNCTION      0.00   594.90     0  02:25           0        7.78       0.211
  WS02004412           JUNCTION      0.00   594.00     0  02:26           0        7.77       0.233
  WS02004413           JUNCTION      0.00   593.41     0  02:26           0        7.75       0.355
  WS02004405           JUNCTION      0.04   606.75     0  02:24     0.00107        7.87       0.235
  WS02006109           JUNCTION      1.23   647.76     0  02:18      0.0347        7.98       0.206
  WS02006110           JUNCTION      0.00   647.78     0  02:18           0        7.97       0.199
  WS02006111           JUNCTION      0.00   668.06     0  02:18           0        7.95       0.032
  WS02006112           JUNCTION     15.03   658.32     0  02:18      0.0369        7.98       0.319
  WS02006113           JUNCTION      0.00   651.87     0  02:18           0        7.95       0.077
  WS02006115           JUNCTION      0.00   665.37     0  02:18           0        7.95       0.204
  WS02006116           JUNCTION      0.00   624.62     0  02:18           0        7.94       0.178
  WS02006230           JUNCTION     10.28   395.82     0  05:12        0.29        6.79       0.129
  WS02006231           JUNCTION      0.00   387.07     0  05:12           0        6.51       0.062
  WS02006232           JUNCTION      0.00   387.11     0  05:12           0        6.52       0.164
  WS02006234           JUNCTION      0.00   389.00     0  05:12           0        6.52       0.038
  WS02006235           JUNCTION      0.00   388.68     0  05:44           0        6.56       0.111
  WS02006238           JUNCTION      0.00   327.53     0  07:10           0        4.64       0.073
  WS02006240           JUNCTION      0.00   332.28     0  07:10           0        4.61       0.072
  WS02006242           JUNCTION      0.00   338.31     0  02:16           0        4.61       0.090
  WS02006243           JUNCTION      0.00   363.37     0  02:16           0        4.59      -0.212
  WS02006245           JUNCTION      0.00   377.34     0  02:16           0        4.59       0.094
  WS02006247           JUNCTION      0.00   385.82     0  02:15           0        4.59       0.008
  WS02006248           JUNCTION      0.00   395.10     0  02:15           0        4.59      -0.022
  WS02006249           JUNCTION      0.00   472.53     0  02:19           0        5.19       0.037
  WS02006239           JUNCTION      0.00   329.90     0  07:10           0        4.63       0.092
  WS02006251           JUNCTION      0.08   474.87     0  02:19     0.00217        5.21       0.005
  WS02006252           JUNCTION      0.00   400.00     0  02:14           0        4.97       0.002
  WS02006253           JUNCTION      2.28    67.60     0  02:14     0.00477       0.234      -0.154
  WS02006256           JUNCTION      0.00   600.00     0  04:00           0        4.93       0.048
  WS02004138           JUNCTION      0.00   380.00     0  01:40           0        6.87       0.067
  WS02004407           JUNCTION      0.00   599.66     0  02:23           0        7.82       0.073
  WS02006228           JUNCTION      0.00   646.81     0  02:18           0        7.96       0.140
  WS02006229           JUNCTION      0.00   654.87     0  02:17           0        7.97       0.137
  WS02006280           JUNCTION      0.00   336.68     0  02:14           0        1.19       0.006
  WS02006284           JUNCTION      0.10   336.62     0  02:14      0.0027        1.19       0.095
  WS02006287           JUNCTION      0.00   336.51     0  02:14           0        1.19       0.061
  WSF200               JUNCTION      0.00   593.66     0  02:27           0        7.71       0.046
  HS02004901           JUNCTION     18.58    18.58     0  02:08      0.0444      0.0445       4.109
  HS02004881           JUNCTION      7.53    65.86     0  02:14      0.0194       0.207       0.180
  HS02004876           JUNCTION     12.01    59.05     0  02:14      0.0372       0.188       0.285
  HS02004870           JUNCTION     13.30    47.28     0  02:14      0.0367       0.151       0.070
  HS02004862           JUNCTION     10.82    34.86     0  02:14      0.0424       0.114       0.149
  HS02004856           JUNCTION      9.86    24.13     0  02:14      0.0276      0.0735       2.000
  HS02004852           JUNCTION      0.00    14.89     0  02:14           0      0.0459       0.114
  HS02004848           JUNCTION     21.84    21.84     0  02:16      0.0879      0.0879       0.050
  HS02004842           JUNCTION      0.00     7.81     0  02:26           0       0.055      30.937
  HS02004837           JUNCTION     27.68    33.96     0  02:13       0.243       0.285       0.284
  HS02004830           JUNCTION      0.15    34.09     0  02:14     0.00423       0.275       0.450
  HS02004824           JUNCTION     24.54    58.34     0  02:17       0.115       0.389       0.138
  HS02004817           JUNCTION      0.60    58.92     0  02:17      0.0169       0.406       4.286
  HS02004807           JUNCTION     25.01    81.76     0  02:15      0.0674       0.456       0.935
  HS02004802           JUNCTION      0.00    82.40     0  02:16           0       0.452       0.904
  HS02004799           JUNCTION     19.27   217.41     0  02:12      0.0546       0.641       0.357
  HS02004792           JUNCTION     85.88   198.47     0  02:11       0.235       0.586       0.069
  HS02004788           JUNCTION     27.80   115.35     0  02:12       0.123       0.352       0.111
  HS02004785           JUNCTION      0.15    87.96     0  02:11     0.00423       0.231       0.210
  HS02004777           JUNCTION      0.03    88.41     0  02:10    0.000846       0.232       2.287
  HS02004770           JUNCTION     72.88    89.87     0  02:09        0.19       0.232       1.348
  HS02004480           JUNCTION      0.00   256.45     0  02:13           0       0.752       0.103
  HS02004479           JUNCTION      0.00    39.94     0  02:14           0       0.124       0.594
  HS02004478           JUNCTION      0.00   336.49     0  02:14           0        1.19       0.051
  YS02001745           JUNCTION    124.63   221.75     0  03:59        1.26        1.29       0.657
  YS02001748           JUNCTION      0.04   388.48     0  03:04     0.00127        1.31       1.661
  YS02001751           JUNCTION      0.01   418.42     0  03:03     0.00031        1.26       1.751
  YS02001754           JUNCTION      0.26   233.70     0  03:04     0.00733        1.22       1.999
  YS02001762           JUNCTION      0.00   185.68     0  02:59           0        1.38       1.543
  YS02001765           JUNCTION      0.00   185.19     0  02:59           0        1.38       1.778
  YS02001767           JUNCTION      0.54   184.23     0  02:53      0.0151         1.4       2.625
  YS02001770           JUNCTION    159.80   185.00     0  02:59        1.45        1.47       2.159
  YS02001774           JUNCTION      0.00    65.18     0  02:11           0      0.0802      45.151
  YS02001779           JUNCTION      0.01    52.00     0  03:07    0.000141      0.0338      81.850
  YS02001882           JUNCTION      0.00    10.15     0  02:50           0     0.00976      23.663
  YS02001884           JUNCTION      0.00    17.97     0  02:04           0      0.0344      18.152
  YS02001759           JUNCTION    156.22   339.75     0  02:41        1.34        2.68       0.850
  YS02001887           JUNCTION    205.33   214.19     0  02:40        1.58         1.6       0.477
  YS02001890           JUNCTION      0.00   211.46     0  02:39           0        1.56       0.533
  YS02001898           JUNCTION      0.00   213.23     0  02:38           0        1.55       0.164
  YS02001901           JUNCTION      0.00   216.16     0  02:38           0        1.55       0.385
  YS02001904           JUNCTION      0.00   217.22     0  02:47           0        1.55       0.357
  YS02001907           JUNCTION      0.00   398.18     0  02:48           0        3.36       0.681
  YS02001910           JUNCTION      0.00   185.21     0  02:46           0        1.82       0.591
  YS02001915           JUNCTION    111.48   171.97     0  03:00        1.07        1.83       0.278
  YS02001918           JUNCTION      0.00    59.65     0  03:01           0       0.758       0.184
  YS02001619           JUNCTION    108.45   108.45     0  02:49        1.06        1.06       1.150
  YS02001629           JUNCTION      0.00   215.51     0  03:12           0       0.986       2.860
  YS02001641           JUNCTION      0.00   280.59     0  02:43           0        2.13       0.987
  YS02001644           JUNCTION    118.43   397.77     0  02:43        1.21        3.31       0.787
  YS02001652           JUNCTION      0.00   224.32     0  03:05           0        1.12       2.029
  YS02001655           JUNCTION      0.15   428.64     0  03:06     0.00434        1.15       1.982
  YS02001920           JUNCTION      2.87    56.87     0  03:01      0.0809       0.761       0.311
  YS02001923           JUNCTION      0.04    54.00     0  03:01     0.00106        0.68       0.056
  YS02001926           JUNCTION      0.05    54.02     0  03:01     0.00147       0.682       0.386
  YS02001929           JUNCTION     53.99    53.99     0  03:01       0.681       0.681       0.054
  YS02001658           JUNCTION      0.00   409.99     0  03:47           0        1.27       1.077
  YS02001661           JUNCTION      0.00   346.83     0  03:47           0        1.64       0.858
  YS02001664           JUNCTION    145.76   228.28     0  05:00        1.17        1.53       0.230
  YS02001622           JUNCTION      0.00   156.85     0  03:13           0        1.05       3.127
  YS02001633           JUNCTION    120.36   283.44     0  02:27        1.25        2.19       1.468
  YS02001649           JUNCTION      0.00   589.73     0  02:41           0        4.33       0.855
  YS02001757           JUNCTION      0.00  1087.70     0  02:41           0        8.11       1.129
  YS02001895           JUNCTION      0.00   213.90     0  02:41           0        1.56       0.269
  YS02001625           JUNCTION      0.00   216.24     0  03:12           0        1.02       3.951
  YS02163301           JUNCTION      0.00   174.64     0  02:27           0       0.973       2.509
  YS02163601           JUNCTION      0.11   282.68     0  02:27      0.0031        2.14       1.403
  YS02164001           JUNCTION      0.00   281.55     0  02:43           0        2.12       0.921
  YS02001647           JUNCTION      0.00   397.96     0  02:43           0        3.26       0.844
  YSB1154              JUNCTION     21.36    21.36     0  02:12      0.0662      0.0675       2.182
  YSB6556              JUNCTION      0.00    21.33     0  02:12           0      0.0685       1.856
  YSB1174              JUNCTION     21.13    21.13     0  02:07      0.0481      0.0491       2.680
  YSB1171              JUNCTION      0.00    39.84     0  02:12           0       0.123       5.411
  YS02006553           JUNCTION      0.00   393.92     0  02:56           0        3.35       0.440
  YS02006561           JUNCTION      0.00   606.03     0  02:47           0        4.74      -0.002
  YS02006556           JUNCTION      0.00   393.84     0  02:47           0        3.36       0.318
  YS02006558           JUNCTION    173.54   586.94     0  02:40        1.44        4.77       0.116
  YS02001783           JUNCTION      0.00   569.09     0  02:40           0        4.74       0.038
  YS02001784           JUNCTION      1.06   556.51     0  02:42      0.0299        4.76       0.059
  YS02001786           JUNCTION      0.06   552.35     0  02:38     0.00159        4.76       0.057
  YS02001788           JUNCTION      0.07   554.40     0  02:34       0.002        4.76       0.035
  YS02001790           JUNCTION      0.15   556.96     0  02:34     0.00437        4.77       0.036
  YS02001791           JUNCTION      0.00   557.05     0  02:34           0        4.76       0.024
  YS02001793           JUNCTION      0.00   562.40     0  02:28           0        4.76      -0.026
  WS02004139           JUNCTION      0.32   380.40     0  01:40     0.00905        6.87       0.554
  WSC                  OUTFALL       0.00   854.78     0  02:45           0          15       0.000
  3                    OUTFALL       0.00   480.58     0  04:15           0        2.99       0.000
  4                    OUTFALL       0.00   223.13     0  02:18           0       0.593       0.000
  5                    OUTFALL       0.00     0.00     0  00:00           0           0       0.000 ltr
  JK-storage           STORAGE       0.00   790.46     0  02:29           0        4.91     -16.703
  CC-storage           STORAGE       0.00  1088.06     0  02:41           0        8.02       0.180
  XR-storage           STORAGE     401.86   401.86     0  02:45        7.76        8.36      -0.002
  
  
  **********************
  Node Surcharge Summary
  **********************
  
  Surcharging occurs when water rises above the top of the highest conduit.
  ---------------------------------------------------------------------
                                               Max. Height   Min. Depth
                                   Hours       Above Crown    Below Rim
  Node                 Type      Surcharged         Meters       Meters
  ---------------------------------------------------------------------
  WS02004404           JUNCTION        0.08          0.018        2.762
  WS02006109           JUNCTION        1.87          0.300        1.520
  WS02006110           JUNCTION        0.51          0.120        1.730
  WS02006112           JUNCTION        0.69          0.170        1.510
  WS02006230           JUNCTION        0.07          0.198        1.372
  WS02006231           JUNCTION        0.16          0.391        1.139
  WS02006232           JUNCTION        2.10          0.488        0.992
  WS02006234           JUNCTION        0.63          0.295        0.945
  WS02006235           JUNCTION        1.26          0.299        0.991
  WS02006238           JUNCTION        1.62          0.318        1.112
  WS02006240           JUNCTION        0.61          0.223        1.167
  WS02006242           JUNCTION        1.28          0.356        0.464
  WS02006243           JUNCTION        0.05          0.726        0.044
  WS02006245           JUNCTION        0.01          0.067        0.783
  WS02006247           JUNCTION        0.01          0.082        0.678
  WS02006239           JUNCTION        0.65          0.353        0.937
  WS02006252           JUNCTION        2.48          0.193        0.907
  WS02006228           JUNCTION        1.73          0.358        1.842
  YS02001748           JUNCTION        2.28          0.128        1.062
  YS02001751           JUNCTION        4.28          0.860        0.340
  YS02001754           JUNCTION        4.99          0.817        0.333
  YS02001762           JUNCTION        5.48          0.908        0.242
  YS02001765           JUNCTION        5.45          0.856        0.244
  YS02001767           JUNCTION        5.31          0.825        0.205
  YS02001770           JUNCTION        5.25          0.795        0.125
  YS02001774           JUNCTION        5.48          0.899        0.151
  YS02001779           JUNCTION        4.83          0.642        0.038
  YS02001759           JUNCTION        5.49          0.936        0.274
  YS02001619           JUNCTION        4.13          0.514        0.096
  YS02001629           JUNCTION        4.15          0.470        0.000
  YS02001641           JUNCTION        5.46          0.917        0.183
  YS02001644           JUNCTION        5.47          0.910        0.010
  YS02001652           JUNCTION        5.09          1.033        0.097
  YS02001655           JUNCTION        4.34          1.139        0.061
  YS02001658           JUNCTION        2.27          0.652        0.648
  YS02001622           JUNCTION        4.28          0.525        0.095
  YS02001633           JUNCTION        5.44          0.908        0.152
  YS02001649           JUNCTION        5.48          0.926        0.124
  YS02001757           JUNCTION        5.53          1.037        0.173
  YS02001625           JUNCTION        5.16          0.780        0.000
  YS02163301           JUNCTION        5.31          0.884        0.146
  YS02163601           JUNCTION        5.47          0.973        0.107
  YS02164001           JUNCTION        5.45          0.905        0.195
  YS02001647           JUNCTION        5.12          0.731        0.169
  YS02006553           JUNCTION        0.05          0.028        1.162
  YS02001783           JUNCTION        0.01          0.099        1.501
  YS02001784           JUNCTION        0.02          0.193        1.297
  YS02001786           JUNCTION        0.01          0.137        1.293
  YS02001788           JUNCTION        0.01          0.167        1.313
  YS02001790           JUNCTION        1.40          1.152        0.005
  YS02001791           JUNCTION        1.44          0.605        1.315
  YS02001793           JUNCTION        1.51          0.884        1.716
  
  
  *********************
  Node Flooding Summary
  *********************
  
  Flooding refers to all water that overflows a node, whether it ponds or not.
  --------------------------------------------------------------------------
                                                             Total   Maximum
                                 Maximum   Time of Max       Flood    Ponded
                        Hours       Rate    Occurrence      Volume     Depth
  Node                 Flooded       LPS   days hr:min    10^6 ltr    Meters
  --------------------------------------------------------------------------
  YS02001629              0.01     15.45      0  04:00       0.000     0.000
  YS02001625              0.02     10.64      0  04:00       0.000     0.000
  JK-storage              1.31    517.02      0  03:00       0.968     0.000
  XR-storage              2.26    211.62      0  03:04       0.685     0.000
  
  
  **********************
  Storage Volume Summary
  **********************
  
  --------------------------------------------------------------------------------------------------
                         Average     Avg  Evap Exfil       Maximum     Max    Time of Max    Maximum
                          Volume    Pcnt  Pcnt  Pcnt        Volume    Pcnt     Occurrence    Outflow
  Storage Unit           1000 m3    Full  Loss  Loss       1000 m3    Full    days hr:min        LPS
  --------------------------------------------------------------------------------------------------
  JK-storage               0.088      30     0     0         0.291     100       0  02:31     600.00
  CC-storage               2.461      16     0     0         3.506      22       0  05:36     400.00
  XR-storage               0.826      89     0     0         0.926     100       0  03:04     380.00
  
  
  ***********************
  Outfall Loading Summary
  ***********************
  
  -----------------------------------------------------------
                         Flow       Avg       Max       Total
                         Freq      Flow      Flow      Volume
  Outfall Node           Pcnt       LPS       LPS    10^6 ltr
  -----------------------------------------------------------
  WSC                  100.00    609.26    854.78      15.021
  3                     87.85    169.78    480.58       2.987
  4                     37.91     64.92    223.13       0.593
  5                      0.00      0.00      0.00       0.000
  -----------------------------------------------------------
  System                56.44    843.96   1241.05      18.600
  
  
  ********************
  Link Flow Summary
  ********************
  
  -----------------------------------------------------------------------------
                                 Maximum  Time of Max   Maximum    Max/    Max/
                                  |Flow|   Occurrence   |Veloc|    Full    Full
  Link                 Type          LPS  days hr:min     m/sec    Flow   Depth
  -----------------------------------------------------------------------------
  WS02003066WSF200     CONDUIT    593.66     0  02:27      2.86    0.10    0.24
  WS02006287WS02006284 CONDUIT    336.53     0  02:14      1.91    0.16    0.28
  WS02006284WS02006280 CONDUIT    336.68     0  02:14      2.15    0.14    0.25
  WS02006280WS02006229 CONDUIT    336.68     0  02:14      3.46    0.07    0.18
  WS02006229WS02006228 CONDUIT    646.81     0  02:18      1.29    2.14    1.00
  WS02006256WS02006235 CONDUIT    157.58     0  02:08      2.29    1.67    1.00
  WS02006253WS02006251 CONDUIT     74.78     0  02:19      0.59    0.22    0.99
  WS02006252WS02006251 CONDUIT    400.41     0  02:19      3.19    1.47    1.00
  WS02006251WS02006249 CONDUIT    472.53     0  02:19      1.30    1.36    0.96
  WS02006249WS02006248 CONDUIT    395.10     0  02:15      1.29    2.16    0.93
  WS02006248WS02006247 CONDUIT    385.82     0  02:15      1.25    0.84    0.98
  WS02006247WS02006245 CONDUIT    377.34     0  02:16      1.21    2.99    1.00
  WS02006245WS02006243 CONDUIT    363.37     0  02:16      1.24    1.07    1.00
  WS02006243WS02006242 CONDUIT    338.31     0  02:16      1.02    0.72    1.00
  WS02006242WS02006240 CONDUIT    332.28     0  07:10      0.91    1.32    1.00
  WS02006240WS02006239 CONDUIT    329.90     0  07:10      0.95    1.04    1.00
  WS02006239WS02006238 CONDUIT    327.53     0  07:10      0.90    1.05    1.00
  WS02006238WS02006235 CONDUIT    325.71     0  07:10      0.89    0.73    1.00
  WS02006235WS02006234 CONDUIT    389.00     0  05:12      1.04    4.10    1.00
  WS02006234WS02006232 CONDUIT    387.11     0  05:12      1.01    0.78    1.00
  WS02006232WS02006231 CONDUIT    387.07     0  05:12      1.06    0.81    1.00
  WS02006231WS02006230 CONDUIT    385.54     0  05:12      1.35    5.85    1.00
  WS02006230WS02006229 CONDUIT    395.33     0  05:13      1.03    8.80    1.00
  WS02006228WS02006109 CONDUIT    646.53     0  02:18      1.29    2.82    1.00
  WS02006116WS02004401 CONDUIT    612.54     0  02:19      0.88    0.84    0.89
  WS02006115WS02006116 CONDUIT    624.62     0  02:18      0.99    0.80    0.82
  WS02006113WS02006111 CONDUIT    668.06     0  02:18      2.62    0.80    0.51
  WS02006112WS02006115 CONDUIT    665.37     0  02:18      0.92    0.39    0.90
  WS02006111WS02006112 CONDUIT    646.92     0  02:18      1.75    0.31    0.69
  WS02006110WS02006113 CONDUIT    651.87     0  02:18      1.50    0.59    0.81
  WS02006109WS02006110 CONDUIT    647.78     0  02:18      1.29    1.25    1.00
  WS02004411WS02004412 CONDUIT    594.00     0  02:26      0.97    0.84    0.73
  WS02004401WS02004402 CONDUIT    601.66     0  02:21      0.83    0.72    0.92
  WS02004413WS02003067 CONDUIT    593.33     0  02:27      1.17    0.25    0.61
  WS02004412WS02004413 CONDUIT    593.41     0  02:26      0.88    0.40    0.81
  WS02004410WS02004411 CONDUIT    594.90     0  02:25      1.00    0.81    0.72
  WS02004409WS02004410 CONDUIT    596.26     0  02:25      1.05    0.77    0.71
  WS02004407WS02004409 CONDUIT    599.13     0  02:23      1.60    0.21    0.51
  WS02004406WS02004407 CONDUIT    599.66     0  02:23      1.11    0.27    0.65
  WS02004405WS02004406 CONDUIT    600.69     0  02:23      0.77    1.18    0.99
  WS02004404WS02004405 CONDUIT    606.71     0  02:24      0.92    5.94    1.00
  WS02004403WS02004404 CONDUIT    603.62     0  02:23      0.84    0.44    0.97
  WS02004402WS02004403 CONDUIT    601.85     0  02:22      0.86    0.86    0.93
  WS02004139WS02001211 CONDUIT    380.46     0  05:10      0.69    0.48    0.58
  WS02004138WS02004139 CONDUIT    380.08     0  01:40      2.95    0.08    0.43
  WS02003067WS02003066 CONDUIT    593.59     0  02:27      1.28    0.19    0.43
  WS02001213WS02003059 CONDUIT    388.42     0  05:10      0.68    0.64    0.73
  WS02001212WS02001213 CONDUIT    388.14     0  05:10      1.32    0.60    0.44
  WS02001211WS02001212 CONDUIT    387.95     0  05:10      0.78    0.30    0.63
  WS02003072WS02003073 CONDUIT    853.30     0  02:44      1.67    1.84    0.46
  WS02003069WS02003072 CONDUIT    853.48     0  02:43      1.57    0.41    0.48
  WS02003060WS02003069 CONDUIT    853.53     0  02:43      1.82    0.33    0.43
  WS02003059WS02003060 CONDUIT    388.76     0  05:09      0.94    0.25    0.63
  HS02004901HS02004770 CONDUIT     17.39     0  02:11      0.06    0.07    0.39
  HS02004876HS02004881 CONDUIT     59.04     0  02:14      0.84    0.63    0.10
  HS02004870HS02004876 CONDUIT     47.25     0  02:14      0.57    0.03    0.12
  HS02004842HS02004848 CONDUIT      7.81     0  02:26      0.04    0.00    0.29
  HS02004837HS02004842 CONDUIT      8.13     0  02:26      0.42    0.00    0.31
  HS02004830HS02004837 CONDUIT     33.94     0  02:14      0.51    0.03    0.09
  HS02004824HS02004830 CONDUIT     34.08     0  02:15      0.55    0.04    0.09
  HS02004817HS02004824 CONDUIT     58.32     0  02:17      0.19    0.03    0.44
  HS02004770HS02004777 CONDUIT     88.38     0  02:10      0.32    0.16    0.40
  HS02004799HS02004480 CONDUIT    217.06     0  02:12      0.76    0.27    0.41
  HS02004792HS02004799 CONDUIT    198.36     0  02:12      0.87    0.12    0.33
  HS02004788HS02004792 CONDUIT    115.24     0  02:12      1.00    0.08    0.17
  HS02004785HS02004788 CONDUIT     87.85     0  02:12      0.66    0.66    0.19
  HS02004777HS02004785 CONDUIT     87.81     0  02:11      0.38    0.11    0.33
  HS02004480HS02004478 CONDUIT    256.42     0  02:13      1.18    1.08    0.31
  HS02004479HS02004480 CONDUIT     40.30     0  02:14      0.16    0.04    0.39
  HS02004862HS02004870 CONDUIT     34.82     0  02:15      0.58    0.04    0.09
  HS02004848HS02004852 CONDUIT     14.89     0  02:14      0.39    0.02    0.05
  HS02004856HS02004862 CONDUIT     24.08     0  02:14      0.43    0.02    0.08
  HS02004852HS02004856 CONDUIT     14.84     0  02:15      0.19    0.02    0.11
  HS02004802HS02004478 CONDUIT     83.17     0  02:17      0.38    0.07    0.32
  HS02004478WS02006287 CONDUIT    336.51     0  02:14      1.61    0.09    0.23
  HS02004817HS02004807 CONDUIT     59.99     0  02:18      0.15    0.04    0.59
  HS02004807HS02004802 CONDUIT     82.40     0  02:16      0.32    0.16    0.37
  YS02001759YS02001757 CONDUIT    340.09     0  02:41      0.43    0.24    1.00
  YS02001762YS02001759 CONDUIT    186.96     0  02:59      0.24    0.22    1.00
  YS02001765YS02001762 CONDUIT    185.68     0  02:59      0.24    0.17    1.00
  YS02001770YS02001767 CONDUIT    183.69     0  02:53      0.34    0.73    1.00
  YS02001774YS02001770 CONDUIT     65.18     0  02:11      0.16    0.04    1.00
  YS02001779YS02001774 CONDUIT     52.00     0  03:07      0.10    0.03    1.00
  YS02001649YS02001757 CONDUIT    590.10     0  02:41      0.75    0.36    1.00
  YS02001767YS02001765 CONDUIT    185.19     0  02:59      0.26    0.23    1.00
  YS02006561YS02001783 CONDUIT    569.09     0  02:40      2.01    0.29    0.68
  YS02001783YS02001784 CONDUIT    555.45     0  02:42      1.44    0.77    1.00
  YS02001784YS02001785 CONDUIT    552.29     0  02:38      1.55    1.29    1.00
  YS02001788YS02001790 CONDUIT    556.81     0  02:34      2.09    0.41    1.00
  YS02001790YS02001791 CONDUIT    557.05     0  02:34      2.48    0.61    1.00
  YS02001791YS02001793 CONDUIT    557.07     0  02:34      4.98    0.24    1.00
  YS02001910YS02001907 CONDUIT    185.65     0  02:48      0.50    0.10    0.89
  YS02001786YS02001788 CONDUIT    554.33     0  02:34      2.02    1.07    1.00
  YS02001915YS02001910 CONDUIT    185.21     0  02:46      0.45    0.09    0.68
  YS02001918YS02001915 CONDUIT     62.46     0  03:00      0.44    0.03    0.39
  YS02001923YS02001920 CONDUIT     54.00     0  03:01      0.54    0.02    0.20
  YS02001926YS02001923 CONDUIT     53.96     0  03:01      0.61    0.08    0.17
  YS02001929YS02001926 CONDUIT     53.97     0  03:01      0.66    0.03    0.16
  YS02001920YS02001918 CONDUIT     59.65     0  03:01      0.55    0.06    0.26
  YS02001629YS02163301 CONDUIT    174.64     0  02:27      0.22    0.22    1.00
  YS02001619YS02001622 CONDUIT    156.85     0  03:13      0.76    0.23    1.00
  YS02001622YS02001625 CONDUIT    216.24     0  03:12      0.32    0.12    1.00
  YS02001625YS02001629 CONDUIT    215.51     0  03:12      0.32    0.10    1.00
  YS02163301YS02001633 CONDUIT    175.68     0  02:27      0.22    0.17    1.00
  YS02163601YS02164001 CONDUIT    281.55     0  02:43      0.36    0.25    1.00
  YS02164001YS02001641 CONDUIT    280.59     0  02:43      0.36    0.38    1.00
  YS02001641YS02001644 CONDUIT    280.61     0  02:43      0.36    0.91    1.00
  YS02001647YS02001649 CONDUIT    425.86     0  02:26      0.56    0.22    1.00
  YS02006553YS02006556 CONDUIT    393.84     0  02:47      0.51    0.34    0.97
  YS02006556YS02006558 CONDUIT    413.48     0  02:40      0.53    0.33    0.99
  YSB6556YSB1171       CONDUIT     21.80     0  02:15      0.08    0.02    0.66
  YS02001907YS02006553 CONDUIT    393.92     0  02:56      0.44    0.46    1.00
  YS02006558YS02006561 CONDUIT    606.03     0  02:47      3.02    1.34    0.68
  YS02001633YS02163601 CONDUIT    282.57     0  02:27      0.36    0.30    1.00
  YS02001644YS02001647 CONDUIT    397.96     0  02:43      0.51    0.23    1.00
  YS02001745YS02001748 CONDUIT    293.70     0  03:58      1.58    0.11    0.88
  YS02001748YS02001751 CONDUIT    418.41     0  03:03      1.23    0.21    1.00
  YS02001751YS02001754 CONDUIT    233.44     0  03:04      1.07    0.11    1.00
  YS02001754YS02001757 CONDUIT    239.25     0  03:04      0.33    0.10    1.00
  YS02001882YS02001884 CONDUIT     11.12     0  02:50      0.06    0.01    0.62
  YS02001884YS02001887 CONDUIT     17.97     0  02:04      0.07    0.02    0.71
  YS02001890YS02001895 CONDUIT    213.90     0  02:41      0.38    0.10    0.68
  YS02001895YS02001898 CONDUIT    213.23     0  02:38      0.53    0.37    0.54
  YS02001898YS02001901 CONDUIT    216.16     0  02:38      0.43    0.14    0.62
  YS02001901YS02001904 CONDUIT    217.22     0  02:47      0.39    0.34    0.67
  YS02001904YS02001907 CONDUIT    222.92     0  02:38      0.32    0.08    0.83
  YS02001887YS02001890 CONDUIT    211.46     0  02:39      0.33    0.36    0.76
  YS02001652YS02001649 CONDUIT    227.73     0  02:51      0.38    0.11    1.00
  YS02001655YS02001652 CONDUIT    224.32     0  03:05      1.14    0.11    1.00
  YS02001658YS02001655 CONDUIT    428.49     0  03:06      1.42    0.18    1.00
  YS02001661YS02001658 CONDUIT    409.99     0  03:47      1.65    0.16    0.92
  YS02001664YS02001661 CONDUIT    260.55     0  04:30      1.41    0.08    0.62
  YSB1154YSB6556       CONDUIT     21.33     0  02:12      0.19    0.04    0.55
  YSB1174YSB1171       CONDUIT     19.55     0  02:09      0.08    0.03    0.67
  YSB1171HS02004479    CONDUIT     39.94     0  02:14      0.54    0.03    0.52
  HS02004881HS02006253 CONDUIT     65.86     0  02:14      2.03    0.01    0.30
  YS02001793JiankangQianchi CONDUIT    790.46     0  02:29     12.91    0.06    1.00
  YS02001757CaochengTiaoxuchi CONDUIT   1088.06     0  02:41      2.27    0.48    1.00
  WSF200WS02003060     CONDUIT    593.59     0  02:27      1.98    0.13    0.34
  1                    CONDUIT    854.78     0  02:45      3.19    0.30    0.37
  2                    CONDUIT    223.13     0  02:18      6.01    0.53    0.52
  3                    CONDUIT    480.58     0  04:15      9.71    0.77    0.66
  4                    CONDUIT      0.00     0  00:00      0.00    0.00    0.00
  CC-Pump-1            PUMP       200.00     0  02:14              1.00
  CC-Pump-2            PUMP       200.00     0  02:14              1.00
  JK-Pump-1            PUMP       300.00     0  02:40              1.00
  JK-Pump-2            PUMP       300.00     0  03:30              1.00
  XR-Pump-1            PUMP        95.00     0  00:00              1.00
  XR-Pump-2            PUMP        95.00     0  00:20              1.00
  XR-Pump-3            PUMP        95.00     0  00:40              1.00
  XR-Pump-4            PUMP        95.00     0  00:00              1.00
  
  
  ***************************
  Flow Classification Summary
  ***************************
  
  -------------------------------------------------------------------------------------
                      Adjusted    ---------- Fraction of Time in Flow Class ---------- 
                       /Actual         Up    Down  Sub   Sup   Up    Down  Norm  Inlet 
  Conduit               Length    Dry  Dry   Dry   Crit  Crit  Crit  Crit  Ltd   Ctrl  
  -------------------------------------------------------------------------------------
  WS02003066WSF200        1.00   0.02  0.03  0.00  0.00  0.95  0.00  0.00  0.73  0.00
  WS02006287WS02006284    1.00   0.04  0.02  0.00  0.69  0.26  0.00  0.00  0.76  0.00
  WS02006284WS02006280    1.00   0.04  0.00  0.00  0.00  0.00  0.00  0.96  0.00  0.00
  WS02006280WS02006229    1.00   0.04  0.00  0.00  0.00  0.00  0.00  0.96  0.00  0.00
  WS02006229WS02006228    1.00   0.00  0.00  0.00  1.00  0.00  0.00  0.00  0.00  0.00
  WS02006256WS02006235    1.00   0.01  0.00  0.00  0.99  0.00  0.00  0.00  0.00  0.00
  WS02006253WS02006251    1.00   0.01  0.03  0.00  0.96  0.00  0.00  0.00  0.00  0.00
  WS02006252WS02006251    1.00   0.08  0.00  0.00  0.00  0.00  0.92  0.00  0.00  0.00
  WS02006251WS02006249    1.00   0.00  0.00  0.00  1.00  0.00  0.00  0.00  0.27  0.00
  WS02006249WS02006248    1.00   0.00  0.00  0.00  0.92  0.00  0.08  0.00  0.00  0.00
  WS02006248WS02006247    1.00   0.00  0.00  0.00  0.99  0.00  0.00  0.01  0.16  0.00
  WS02006247WS02006245    1.00   0.00  0.00  0.00  0.97  0.00  0.00  0.02  0.00  0.00
  WS02006245WS02006243    1.00   0.01  0.00  0.00  0.95  0.00  0.00  0.04  0.02  0.00
  WS02006243WS02006242    1.00   0.01  0.00  0.00  0.99  0.00  0.00  0.01  0.18  0.00
  WS02006242WS02006240    1.00   0.01  0.00  0.00  0.99  0.00  0.00  0.00  0.00  0.00
  WS02006240WS02006239    1.00   0.01  0.00  0.00  0.96  0.00  0.00  0.03  0.01  0.00
  WS02006239WS02006238    1.00   0.01  0.00  0.00  0.99  0.00  0.00  0.00  0.00  0.00
  WS02006238WS02006235    1.00   0.01  0.00  0.00  0.99  0.00  0.00  0.00  0.00  0.00
  WS02006235WS02006234    1.00   0.01  0.00  0.00  0.96  0.00  0.03  0.00  0.00  0.00
  WS02006234WS02006232    1.00   0.01  0.00  0.00  0.99  0.00  0.00  0.00  0.01  0.00
  WS02006232WS02006231    1.00   0.01  0.00  0.00  0.99  0.00  0.00  0.00  0.00  0.00
  WS02006231WS02006230    1.00   0.01  0.00  0.00  0.69  0.00  0.30  0.00  0.00  0.00
  WS02006230WS02006229    1.00   0.00  0.00  0.00  0.99  0.00  0.00  0.01  0.00  0.00
  WS02006228WS02006109    1.00   0.00  0.00  0.00  1.00  0.00  0.00  0.00  0.00  0.00
  WS02006116WS02004401    1.00   0.03  0.00  0.00  0.97  0.00  0.00  0.00  0.00  0.00
  WS02006115WS02006116    1.00   0.03  0.00  0.00  0.96  0.00  0.00  0.01  0.00  0.00
  WS02006113WS02006111    1.00   0.01  0.00  0.00  0.01  0.98  0.00  0.00  0.12  0.00
  WS02006112WS02006115    1.00   0.01  0.01  0.00  0.97  0.00  0.01  0.00  0.00  0.00
  WS02006111WS02006112    1.00   0.01  0.00  0.00  0.98  0.01  0.00  0.01  0.91  0.00
  WS02006110WS02006113    1.00   0.00  0.01  0.00  0.99  0.00  0.00  0.00  0.00  0.00
  WS02006109WS02006110    1.00   0.00  0.00  0.00  1.00  0.00  0.00  0.00  0.00  0.00
  WS02004411WS02004412    1.00   0.04  0.00  0.00  0.96  0.00  0.00  0.00  0.00  0.00
  WS02004401WS02004402    1.00   0.03  0.00  0.00  0.97  0.00  0.00  0.00  0.00  0.00
  WS02004413WS02003067    1.00   0.04  0.00  0.00  0.00  0.00  0.96  0.00  0.00  0.00
  WS02004412WS02004413    1.00   0.04  0.00  0.00  0.96  0.00  0.00  0.00  0.01  0.00
  WS02004410WS02004411    1.00   0.04  0.00  0.00  0.96  0.00  0.00  0.00  0.00  0.00
  WS02004409WS02004410    1.00   0.04  0.00  0.00  0.96  0.00  0.00  0.00  0.01  0.00
  WS02004407WS02004409    1.00   0.04  0.00  0.00  0.96  0.00  0.00  0.00  0.88  0.00
  WS02004406WS02004407    1.00   0.00  0.04  0.00  0.96  0.00  0.00  0.00  0.00  0.00
  WS02004405WS02004406    1.00   0.00  0.00  0.00  1.00  0.00  0.00  0.00  0.04  0.00
  WS02004404WS02004405    1.00   0.00  0.00  0.00  1.00  0.00  0.00  0.00  0.00  0.00
  WS02004403WS02004404    1.00   0.00  0.03  0.00  0.97  0.00  0.00  0.00  0.00  0.00
  WS02004402WS02004403    1.00   0.03  0.00  0.00  0.97  0.00  0.00  0.00  0.00  0.00
  WS02004139WS02001211    1.00   0.00  0.00  0.00  1.00  0.00  0.00  0.00  0.00  0.00
  WS02004138WS02004139    1.00   0.00  0.00  0.00  1.00  0.00  0.00  0.00  1.00  0.00
  WS02003067WS02003066    1.00   0.04  0.00  0.00  0.95  0.00  0.00  0.00  0.00  0.00
  WS02001213WS02003059    1.00   0.00  0.00  0.00  1.00  0.00  0.00  0.00  0.00  0.00
  WS02001212WS02001213    1.00   0.00  0.00  0.00  0.89  0.00  0.11  0.00  0.00  0.00
  WS02001211WS02001212    1.00   0.00  0.00  0.00  1.00  0.00  0.00  0.00  0.00  0.00
  WS02003072WS02003073    1.00   0.00  0.00  0.00  0.00  0.00  0.00  1.00  0.00  0.00
  WS02003069WS02003072    1.00   0.00  0.00  0.00  1.00  0.00  0.00  0.00  0.22  0.00
  WS02003060WS02003069    1.00   0.00  0.00  0.00  1.00  0.00  0.00  0.00  0.11  0.00
  WS02003059WS02003060    1.00   0.00  0.00  0.00  1.00  0.00  0.00  0.00  0.01  0.00
  HS02004901HS02004770    1.00   0.04  0.00  0.00  0.96  0.00  0.00  0.00  0.02  0.00
  HS02004876HS02004881    1.00   0.00  0.00  0.00  0.97  0.02  0.00  0.00  0.00  0.00
  HS02004870HS02004876    1.00   0.00  0.00  0.00  1.00  0.00  0.00  0.00  0.95  0.00
  HS02004842HS02004848    1.00   0.00  0.04  0.00  0.96  0.00  0.00  0.00  0.67  0.00
  HS02004837HS02004842    1.00   0.00  0.00  0.00  1.00  0.00  0.00  0.00  0.11  0.00
  HS02004830HS02004837    1.00   0.00  0.00  0.00  1.00  0.00  0.00  0.00  0.99  0.00
  HS02004824HS02004830    1.00   0.00  0.00  0.00  1.00  0.00  0.00  0.00  0.00  0.00
  HS02004817HS02004824    1.00   0.00  0.00  0.00  1.00  0.00  0.00  0.00  1.00  0.00
  HS02004770HS02004777    1.00   0.00  0.04  0.00  0.96  0.00  0.00  0.00  0.07  0.00
  HS02004799HS02004480    1.00   0.00  0.01  0.00  0.95  0.00  0.05  0.00  0.00  0.00
  HS02004792HS02004799    1.00   0.00  0.00  0.00  1.00  0.00  0.00  0.00  0.98  0.00
  HS02004788HS02004792    1.00   0.00  0.00  0.00  1.00  0.00  0.00  0.00  0.98  0.00
  HS02004785HS02004788    1.00   0.00  0.00  0.00  1.00  0.00  0.00  0.00  0.00  0.00
  HS02004777HS02004785    1.00   0.00  0.00  0.00  1.00  0.00  0.00  0.00  0.20  0.00
  HS02004480HS02004478    1.00   0.04  0.00  0.00  0.74  0.00  0.00  0.21  0.00  0.00
  HS02004479HS02004480    1.00   0.01  0.00  0.00  0.99  0.00  0.00  0.00  0.16  0.00
  HS02004862HS02004870    1.00   0.00  0.00  0.00  1.00  0.00  0.00  0.00  0.05  0.00
  HS02004848HS02004852    1.00   0.04  0.00  0.00  0.96  0.00  0.00  0.00  0.72  0.00
  HS02004856HS02004862    1.00   0.00  0.06  0.00  0.94  0.00  0.00  0.00  0.75  0.00
  HS02004852HS02004856    1.00   0.04  0.01  0.00  0.95  0.00  0.00  0.00  0.83  0.00
  HS02004802HS02004478    1.00   0.04  0.00  0.00  0.95  0.00  0.00  0.00  0.01  0.00
  HS02004478WS02006287    1.00   0.05  0.00  0.00  0.84  0.10  0.00  0.00  0.73  0.00
  HS02004817HS02004807    1.00   0.00  0.04  0.00  0.96  0.00  0.00  0.00  0.00  0.00
  HS02004807HS02004802    1.00   0.04  0.00  0.00  0.96  0.00  0.00  0.00  0.01  0.00
  YS02001759YS02001757    1.00   0.00  0.00  0.00  1.00  0.00  0.00  0.00  0.17  0.00
  YS02001762YS02001759    1.00   0.00  0.00  0.00  1.00  0.00  0.00  0.00  0.04  0.00
  YS02001765YS02001762    1.00   0.00  0.00  0.00  1.00  0.00  0.00  0.00  0.22  0.00
  YS02001770YS02001767    1.00   0.00  0.00  0.00  1.00  0.00  0.00  0.00  0.00  0.00
  YS02001774YS02001770    1.00   0.00  0.05  0.00  0.95  0.00  0.00  0.00  0.06  0.00
  YS02001779YS02001774    1.00   0.00  0.00  0.00  1.00  0.00  0.00  0.00  0.26  0.00
  YS02001649YS02001757    1.00   0.00  0.00  0.00  1.00  0.00  0.00  0.00  0.19  0.00
  YS02001767YS02001765    1.00   0.00  0.00  0.00  1.00  0.00  0.00  0.00  0.01  0.00
  YS02006561YS02001783    1.00   0.06  0.00  0.00  0.23  0.70  0.00  0.00  0.69  0.00
  YS02001783YS02001784    1.00   0.00  0.06  0.00  0.94  0.00  0.00  0.00  0.00  0.00
  YS02001784YS02001785    1.00   0.00  0.00  0.00  1.00  0.00  0.00  0.00  0.25  0.00
  YS02001788YS02001790    1.00   0.00  0.00  0.00  0.32  0.68  0.00  0.00  0.67  0.00
  YS02001790YS02001791    1.00   0.00  0.00  0.00  0.25  0.75  0.00  0.00  0.47  0.00
  YS02001791YS02001793    1.00   0.00  0.00  0.00  0.26  0.74  0.00  0.00  0.01  0.00
  YS02001910YS02001907    1.00   0.00  0.00  0.00  0.99  0.00  0.00  0.00  0.13  0.00
  YS02001786YS02001788    1.00   0.00  0.00  0.00  0.31  0.69  0.00  0.00  0.00  0.00
  YS02001915YS02001910    1.00   0.00  0.00  0.00  1.00  0.00  0.00  0.00  0.23  0.00
  YS02001918YS02001915    1.00   0.00  0.00  0.00  1.00  0.00  0.00  0.00  0.66  0.00
  YS02001923YS02001920    1.00   0.00  0.00  0.00  1.00  0.00  0.00  0.00  1.00  0.00
  YS02001926YS02001923    1.00   0.00  0.01  0.00  0.00  0.00  0.99  0.00  0.00  0.00
  YS02001929YS02001926    1.00   0.00  0.04  0.00  0.96  0.00  0.00  0.00  0.87  0.00
  YS02001920YS02001918    1.00   0.00  0.00  0.00  1.00  0.00  0.00  0.00  0.00  0.00
  YS02001629YS02163301    1.00   0.06  0.00  0.00  0.94  0.00  0.00  0.00  0.00  0.00
  YS02001619YS02001622    1.00   0.04  0.00  0.00  0.96  0.00  0.00  0.00  0.00  0.00
  YS02001622YS02001625    1.00   0.04  0.00  0.00  0.96  0.00  0.00  0.00  0.12  0.00
  YS02001625YS02001629    1.00   0.04  0.02  0.00  0.92  0.00  0.01  0.00  0.00  0.00
  YS02163301YS02001633    1.00   0.00  0.06  0.00  0.94  0.00  0.00  0.00  0.00  0.00
  YS02163601YS02164001    1.00   0.00  0.02  0.00  0.98  0.00  0.00  0.00  0.00  0.00
  YS02164001YS02001641    1.00   0.00  0.02  0.00  0.98  0.00  0.00  0.00  0.07  0.00
  YS02001641YS02001644    1.00   0.00  0.00  0.00  1.00  0.00  0.00  0.00  0.00  0.00
  YS02001647YS02001649    1.00   0.00  0.06  0.00  0.94  0.00  0.00  0.00  0.01  0.00
  YS02006553YS02006556    1.00   0.00  0.00  0.00  1.00  0.00  0.00  0.00  0.03  0.00
  YS02006556YS02006558    1.00   0.00  0.00  0.00  1.00  0.00  0.00  0.00  0.00  0.00
  YSB6556YSB1171          1.00   0.01  0.03  0.00  0.96  0.00  0.00  0.00  0.00  0.00
  YS02001907YS02006553    1.00   0.00  0.00  0.00  1.00  0.00  0.00  0.00  0.00  0.00
  YS02006558YS02006561    1.00   0.06  0.00  0.00  0.00  0.94  0.00  0.00  0.58  0.00
  YS02001633YS02163601    1.00   0.00  0.00  0.00  1.00  0.00  0.00  0.00  0.19  0.00
  YS02001644YS02001647    1.00   0.00  0.06  0.00  0.94  0.00  0.00  0.00  0.00  0.00
  YS02001745YS02001748    1.00   0.00  0.00  0.00  0.90  0.00  0.00  0.10  0.08  0.00
  YS02001748YS02001751    1.00   0.00  0.00  0.00  0.98  0.02  0.00  0.00  0.23  0.00
  YS02001751YS02001754    1.00   0.00  0.00  0.00  0.93  0.00  0.00  0.07  0.01  0.00
  YS02001754YS02001757    1.00   0.00  0.00  0.00  1.00  0.00  0.00  0.00  0.26  0.00
  YS02001882YS02001884    1.00   0.05  0.00  0.00  0.94  0.00  0.00  0.00  0.00  0.00
  YS02001884YS02001887    1.00   0.01  0.03  0.00  0.96  0.00  0.00  0.00  0.00  0.00
  YS02001890YS02001895    1.00   0.00  0.06  0.00  0.94  0.00  0.00  0.00  0.00  0.00
  YS02001895YS02001898    1.00   0.06  0.00  0.00  0.93  0.00  0.01  0.00  0.00  0.00
  YS02001898YS02001901    1.00   0.06  0.00  0.00  0.94  0.00  0.00  0.00  0.02  0.00
  YS02001901YS02001904    1.00   0.06  0.00  0.00  0.94  0.00  0.00  0.00  0.00  0.00
  YS02001904YS02001907    1.00   0.00  0.06  0.00  0.94  0.00  0.00  0.00  0.00  0.00
  YS02001887YS02001890    1.00   0.00  0.00  0.00  0.99  0.00  0.00  0.00  0.00  0.00
  YS02001652YS02001649    1.00   0.00  0.00  0.00  1.00  0.00  0.00  0.00  0.25  0.00
  YS02001655YS02001652    1.00   0.00  0.00  0.00  0.93  0.00  0.00  0.07  0.01  0.00
  YS02001658YS02001655    1.00   0.00  0.05  0.00  0.92  0.03  0.00  0.00  0.07  0.00
  YS02001661YS02001658    1.00   0.05  0.00  0.00  0.90  0.05  0.00  0.00  0.07  0.00
  YS02001664YS02001661    1.00   0.04  0.00  0.00  0.85  0.11  0.00  0.00  0.36  0.00
  YSB1154YSB6556          1.00   0.04  0.00  0.00  0.96  0.00  0.00  0.00  0.02  0.00
  YSB1174YSB1171          1.00   0.01  0.02  0.00  0.97  0.00  0.00  0.00  0.00  0.00
  YSB1171HS02004479       1.00   0.01  0.00  0.00  0.99  0.00  0.00  0.00  0.13  0.00
  HS02004881HS02006253    1.00   0.01  0.00  0.00  0.82  0.01  0.00  0.16  0.62  0.00
  YS02001793JiankangQianchi    1.00   0.00  0.00  0.00  0.39  0.61  0.00  0.00  0.22  0.00
  YS02001757CaochengTiaoxuchi    1.00   0.00  0.08  0.00  0.91  0.02  0.00  0.00  0.00  0.00
  WSF200WS02003060        1.00   0.00  0.02  0.00  0.71  0.27  0.00  0.00  0.38  0.00
  1                       1.00   0.00  0.00  0.00  0.00  1.00  0.00  0.00  0.30  0.00
  2                       1.00   0.62  0.00  0.00  0.00  0.38  0.00  0.00  0.08  0.00
  3                       1.00   0.12  0.00  0.00  0.00  0.88  0.00  0.00  0.03  0.00
  4                       1.00   1.00  0.00  0.00  0.00  0.00  0.00  0.00  0.00  0.00
  
  
  *************************
  Conduit Surcharge Summary
  *************************
  
  ----------------------------------------------------------------------------
                                                           Hours        Hours 
                         --------- Hours Full --------   Above Full   Capacity
  Conduit                Both Ends  Upstream  Dnstream   Normal Flow   Limited
  ----------------------------------------------------------------------------
  WS02006229WS02006228        1.73      2.02      1.73      4.99         1.72
  WS02006256WS02006235        5.88      5.88      7.19      2.92         0.01
  WS02006253WS02006251        0.01      0.01      0.12      0.01         0.01
  WS02006252WS02006251        1.48      1.48      2.48      2.22         0.01
  WS02006251WS02006249        0.01      0.01      0.01      1.47         0.01
  WS02006249WS02006248        0.01      0.01      0.01      4.60         0.01
  WS02006248WS02006247        0.01      0.01      0.01      0.01         0.01
  WS02006247WS02006245        0.01      0.02      0.01      4.91         0.01
  WS02006245WS02006243        0.01      0.01      0.05      0.04         0.01
  WS02006243WS02006242        0.41      0.41      1.28      0.01         0.01
  WS02006242WS02006240        0.61      0.61      1.73      2.51         0.01
  WS02006240WS02006239        0.63      0.63      0.65      0.04         0.01
  WS02006239WS02006238        1.52      1.52      1.62      0.09         0.05
  WS02006238WS02006235        1.48      1.48      1.98      0.01         0.01
  WS02006235WS02006234        0.63      0.63      1.26      5.88         0.01
  WS02006234WS02006232        0.67      0.67      2.10      0.01         0.01
  WS02006232WS02006231        0.16      0.16      2.10      0.01         0.01
  WS02006231WS02006230        0.07      0.07      0.33      5.90         0.01
  WS02006230WS02006229        3.09      4.74      3.09      6.00         3.08
  WS02006228WS02006109        1.87      2.51      1.87      5.43         1.87
  WS02006112WS02006115        0.01      0.01      0.69      0.01         0.01
  WS02006111WS02006112        0.01      0.01      5.19      0.01         0.01
  WS02006110WS02006113        0.01      0.01      2.26      0.01         0.01
  WS02006109WS02006110        0.51      0.51      2.51      0.52         0.01
  WS02004405WS02004406        0.01      0.01      0.01      0.63         0.01
  WS02004404WS02004405        0.01      0.08      0.01      5.69         0.01
  WS02004403WS02004404        0.01      0.01      0.08      0.01         0.01
  WS02003072WS02003073        0.01      0.01      0.01      5.41         0.01
  HS02004480HS02004478        0.01      0.01      0.01      0.15         0.01
  YS02001759YS02001757        5.49      5.49      5.53      0.01         0.01
  YS02001762YS02001759        5.48      5.48      5.49      0.01         0.02
  YS02001765YS02001762        5.45      5.45      5.48      0.01         0.01
  YS02001770YS02001767        5.29      5.30      5.31      0.01         0.75
  YS02001774YS02001770        5.25      5.25      5.48      0.01         0.01
  YS02001779YS02001774        4.83      4.83      5.48      0.01         0.01
  YS02001649YS02001757        5.48      5.48      5.53      0.01         0.01
  YS02001767YS02001765        5.31      5.31      5.45      0.01         0.02
  YS02006561YS02001783        0.01      0.01      0.01      0.01         0.01
  YS02001783YS02001784        0.01      0.01      0.02      0.01         0.01
  YS02001784YS02001785        0.01      0.02      0.01      0.97         0.01
  YS02001788YS02001790        0.01      0.01      1.40      0.01         0.01
  YS02001790YS02001791        1.40      1.40      1.44      0.01         0.01
  YS02001791YS02001793        1.44      1.44      1.53      0.01         0.01
  YS02001786YS02001788        0.01      0.01      0.01      0.47         0.01
  YS02001629YS02163301        5.26      5.26      5.31      0.01         0.01
  YS02001619YS02001622        4.13      4.13      4.28      0.01         0.02
  YS02001622YS02001625        4.28      4.28      5.16      0.01         0.01
  YS02001625YS02001629        4.15      4.15      5.16      0.01         0.01
  YS02163301YS02001633        5.31      5.31      5.46      0.01         0.01
  YS02163601YS02164001        5.45      5.45      5.47      0.01         0.01
  YS02164001YS02001641        5.45      5.45      5.46      0.01         0.01
  YS02001641YS02001644        5.46      5.46      5.47      0.01         1.14
  YS02001647YS02001649        5.12      5.12      5.48      0.01         0.01
  YS02006553YS02006556        0.01      0.01      0.04      0.01         0.01
  YS02006556YS02006558        0.01      0.01      0.26      0.01         0.01
  YS02001907YS02006553        0.99      0.99      1.19      0.01         0.01
  YS02006558YS02006561        0.01      0.01      0.01      0.82         0.01
  YS02001633YS02163601        5.44      5.44      5.47      0.01         0.01
  YS02001644YS02001647        5.12      5.12      5.47      0.01         0.01
  YS02001745YS02001748        0.01      0.01      2.28      0.01         0.01
  YS02001748YS02001751        3.38      3.38      4.28      0.01         0.01
  YS02001751YS02001754        4.28      4.28      4.99      0.01         0.01
  YS02001754YS02001757        5.12      5.12      5.53      0.01         0.01
  YS02001904YS02001907        0.01      0.01      0.02      0.01         0.01
  YS02001652YS02001649        5.15      5.15      5.48      0.01         0.01
  YS02001655YS02001652        4.34      4.34      5.09      0.01         0.01
  YS02001658YS02001655        2.27      2.27      4.34      0.01         0.01
  YS02001661YS02001658        0.01      0.01      2.27      0.01         0.01
  YS02001793JiankangQianchi        1.51      1.51      2.56      0.01         0.01
  YS02001757CaochengTiaoxuchi        3.92      3.92      5.53      0.01         0.01
  
  
  ***************
  Pumping Summary
  ***************
  
  ---------------------------------------------------------------------------------------------------------
                                                  Min       Avg       Max     Total     Power    % Time Off
                        Percent   Number of      Flow      Flow      Flow    Volume     Usage    Pump Curve
  Pump                 Utilized   Start-Ups       LPS       LPS       LPS  10^6 ltr     Kw-hr    Low   High
  ---------------------------------------------------------------------------------------------------------
  CC-Pump-1               59.40           5      0.00    150.75    200.00     2.546      5.33    0.0   14.9
  CC-Pump-2               59.40           7      0.00    144.24    200.00     2.426      5.68    0.0   14.9
  JK-Pump-1               76.59           7      0.00    151.85    300.00     2.646     36.68    0.0    0.0
  JK-Pump-2               68.07           6      0.00    154.83    300.00     2.286     33.06    0.0    0.0
  XR-Pump-1               97.85           6      0.00     74.01     95.00     2.052     18.33    0.0    0.0
  XR-Pump-2               85.09           8      0.00     72.25     95.00     1.767     17.67    0.0    0.0
  XR-Pump-3               80.83           8      0.00     64.34     95.00     1.453     12.95    0.0    0.0
  XR-Pump-4               87.22          12      0.00     64.00     95.00     1.596     13.50    0.0    0.0
  

  Analysis begun on:  Tue Dec 21 15:16:38 2021
  Analysis ended on:  Tue Dec 21 15:16:43 2021
  Total elapsed time: 00:00:05