
  EPA STORM WATER MANAGEMENT MODEL - VERSION 5.1 (Build 5.3.0.dev0)
  --------------------------------------------------------------

  WARNING 04: minimum elevation drop used for Conduit WS02004404WS02004405
  WARNING 03: negative offset ignored for Link YS02001904YS02001907
  
  *********************************************************
  NOTE: The summary statistics displayed in this report are
  based on results found at every computational time step,  
  not just on results from each reporting time step.
  *********************************************************
  
  ****************
  Analysis Options
  ****************
  Flow Units ............... LPS
  Process Models:
    Rainfall/Runoff ........ YES
    RDII ................... NO
    Snowmelt ............... NO
    Groundwater ............ NO
    Flow Routing ........... YES
    Ponding Allowed ........ NO
    Water Quality .......... NO
  Infiltration Method ...... HORTON
  Flow Routing Method ...... DYNWAVE
  Surcharge Method ......... EXTRAN
  Starting Date ............ 08/28/2015 08:00:00
  Ending Date .............. 08/28/2015 15:50:00
  Antecedent Dry Days ...... 8.0
  Report Time Step ......... 00:01:00
  Wet Time Step ............ 00:01:00
  Dry Time Step ............ 00:01:00
  Routing Time Step ........ 5.00 sec
  Variable Time Step ....... YES
  Maximum Trials ........... 8
  Number of Threads ........ 4
  Head Tolerance ........... 0.001500 m
  
  
  **************************        Volume         Depth
  Runoff Quantity Continuity     hectare-m            mm
  **************************     ---------       -------
  Total Precipitation ......         2.740         6.000
  Evaporation Loss .........         0.000         0.000
  Infiltration Loss ........         0.689         1.508
  Surface Runoff ...........         1.164         2.549
  Final Storage ............         0.888         1.944
  Continuity Error (%) .....        -0.018
  
  
  **************************        Volume        Volume
  Flow Routing Continuity        hectare-m      10^6 ltr
  **************************     ---------     ---------
  Dry Weather Inflow .......         0.616         6.165
  Wet Weather Inflow .......         1.164        11.637
  Groundwater Inflow .......         0.000         0.000
  RDII Inflow ..............         0.000         0.000
  External Inflow ..........         0.102         1.024
  External Outflow .........         1.776        17.763
  Flooding Loss ............         0.000         0.000
  Evaporation Loss .........         0.000         0.000
  Exfiltration Loss ........         0.000         0.000
  Initial Stored Volume ....         0.076         0.761
  Final Stored Volume ......         0.305         3.054
  Continuity Error (%) .....        -6.288
  
  
  *************************
  Highest Continuity Errors
  *************************
  Node JK-storage (-34.63%)
  Node HS02004842 (28.09%)
  Node YS02001774 (25.89%)
  Node YS02001884 (22.62%)
  Node YSB1171 (6.85%)
  
  
  ***************************
  Time-Step Critical Elements
  ***************************
  Link WS02006252WS02006251 (51.79%)
  Link 3 (35.39%)
  Link WS02006238WS02006235 (5.99%)
  Link WS02006280WS02006229 (2.14%)
  
  
  ********************************
  Highest Flow Instability Indexes
  ********************************
  Link WS02006113WS02006111 (39)
  Link WS02006111WS02006112 (24)
  Link YS02006558YS02006561 (13)
  Link WS02006110WS02006113 (3)
  Link YS02001655YS02001652 (2)
  
  
  *************************
  Routing Time Step Summary
  *************************
  Minimum Time Step           :     0.00 sec
  Average Time Step           :     0.88 sec
  Maximum Time Step           :     5.00 sec
  Percent in Steady State     :    -0.00
  Average Iterations per Step :     2.02
  Percent Not Converging      :     0.12
  
  
  ***************************
  Subcatchment Runoff Summary
  ***************************
  
  ------------------------------------------------------------------------------------------------------------------------------
                            Total      Total      Total      Total     Imperv       Perv      Total       Total     Peak  Runoff
                           Precip      Runon       Evap      Infil     Runoff     Runoff     Runoff      Runoff   Runoff   Coeff
  Subcatchment                 mm         mm         mm         mm         mm         mm         mm    10^6 ltr      LPS
  ------------------------------------------------------------------------------------------------------------------------------
  sub0                       6.00       0.00       0.00       0.42       4.32       0.00       4.32        0.00     1.44   0.719
  sub1                       6.00       0.00       0.00       0.66       4.08       0.00       4.08        0.03     7.61   0.681
  sub2                       6.00       0.00       0.00       2.22       2.87       0.00       2.87        0.03     6.74   0.479
  sub3                       6.00       0.00       0.00       2.22       2.84       0.00       2.84        0.06    13.89   0.473
  sub4                       6.00       0.00       0.00       0.66       3.95       0.00       3.95        0.08    15.61   0.658
  sub5                       6.00       0.00       0.00       0.42       4.27       0.00       4.27        0.05    13.53   0.711
  sub7                       6.00       0.00       0.00       0.54       4.21       0.00       4.21        0.01     4.76   0.701
  sub8                       6.00       0.00       0.00       0.54       4.20       0.00       4.20        0.03     8.41   0.699
  sub9                       6.00       0.00       0.00       0.54       4.19       0.00       4.19        0.02     6.23   0.699
  sub10                      6.00       0.00       0.00       0.48       4.23       0.00       4.23        0.05    13.51   0.705
  sub11                      6.00       0.00       0.00       0.48       4.25       0.00       4.25        0.05    15.82   0.708
  sub12                      6.00       0.00       0.00       0.78       4.03       0.00       4.03        0.04    13.37   0.672
  sub14                      6.00       0.00       0.00       0.54       4.19       0.00       4.19        0.04    12.19   0.699
  sub15                      6.00       0.00       0.00       1.80       3.22       0.00       3.22        0.06    16.54   0.537
  sub16                      6.00       0.00       0.00       1.98       3.10       0.00       3.10        0.03    11.75   0.517
  sub17                      6.00       0.00       0.00       1.92       3.15       0.00       3.15        0.03     9.50   0.524
  sub22                      6.00       0.00       0.00       2.58       2.63       0.00       2.63        0.17    54.10   0.439
  sub23                      6.00       0.00       0.00       2.22       2.91       0.00       2.91        0.14    46.08   0.485
  sub60                      6.00       0.00       0.00       0.72       2.84       0.00       2.84        0.86    79.76   0.473
  sub61                      6.00       0.00       0.00       1.02       3.04       0.00       3.04        0.94   100.03   0.506
  sub62                      6.00       0.00       0.00       0.48       3.26       0.00       3.26        1.00   102.24   0.543
  sub63                      6.00       0.00       0.00       1.74       2.70       0.00       2.70        0.82    93.34   0.451
  sub64                      6.00       0.00       0.00       0.90       2.71       0.00       2.71        0.83    75.76   0.452
  sub65                      6.00       0.00       0.00       0.78       2.75       0.00       2.75        0.85    76.87   0.458
  sub66                      6.00       0.00       0.00       1.74       2.37       0.00       2.37        0.73    69.43   0.395
  sub67                      6.00       0.00       0.00       0.48       3.58       0.00       3.58        1.10   131.19   0.596
  sub68                      6.00       0.00       0.00       0.84       3.23       0.00       3.23        0.99   110.58   0.538
  sub69                      6.00       0.00       0.00       0.90       3.48       0.00       3.48        0.81   109.76   0.581
  sub70                      6.00       3.56       0.00       3.25       4.28       0.00       4.28        0.98    88.75   0.448
  sub71                      6.00       0.00       0.00       0.48       3.11       0.00       3.11        0.74    71.37   0.519
  sub72                      6.00       0.00       0.00       0.42       2.20       0.00       2.20        0.45    33.68   0.367
  sub73                      6.00       4.17       0.00       3.46       4.36       0.00       4.36        1.03    76.27   0.429
  sub74                      6.00       0.00       0.00       4.50       1.05       0.00       1.05        0.42    61.21   0.175
  
  
  ******************
  Node Depth Summary
  ******************
  
  ---------------------------------------------------------------------------------
                                 Average  Maximum  Maximum  Time of Max    Reported
                                   Depth    Depth      HGL   Occurrence   Max Depth
  Node                 Type       Meters   Meters   Meters  days hr:min      Meters
  ---------------------------------------------------------------------------------
  WS02001211           JUNCTION     0.67     0.79     5.63     0  02:40        0.79
  WS02001212           JUNCTION     0.39     0.50     5.56     0  02:40        0.50
  WS02001213           JUNCTION     0.63     0.75     5.51     0  02:41        0.75
  WS02003069           JUNCTION     0.45     0.57     5.15     0  02:42        0.57
  WS02003072           JUNCTION     0.52     0.63     5.00     0  02:42        0.63
  WS02003073           JUNCTION     0.31     0.39     4.45     0  02:43        0.39
  WS02003060           JUNCTION     0.40     0.50     5.43     0  02:41        0.50
  WS02003066           JUNCTION     0.23     0.29     5.84     0  02:39        0.29
  WS02003059           JUNCTION     0.69     0.80     5.49     0  02:41        0.80
  WS02003067           JUNCTION     0.58     0.69     6.01     0  02:39        0.69
  WS02004401           JUNCTION     0.68     0.82     6.82     0  02:36        0.82
  WS02004402           JUNCTION     0.71     0.85     6.81     0  02:36        0.85
  WS02004403           JUNCTION     0.73     0.87     6.80     0  02:36        0.87
  WS02004404           JUNCTION     0.80     0.94     6.79     0  02:36        0.94
  WS02004406           JUNCTION     0.81     0.94     6.77     0  02:36        0.94
  WS02004409           JUNCTION     0.50     0.64     6.41     0  02:38        0.64
  WS02004410           JUNCTION     0.52     0.66     6.38     0  02:39        0.66
  WS02004411           JUNCTION     0.53     0.67     6.35     0  02:39        0.67
  WS02004412           JUNCTION     0.55     0.68     6.32     0  02:39        0.68
  WS02004413           JUNCTION     0.70     0.84     6.31     0  02:39        0.84
  WS02004405           JUNCTION     0.80     0.93     6.78     0  02:36        0.93
  WS02006109           JUNCTION     0.76     0.93     7.55     0  02:31        0.93
  WS02006110           JUNCTION     0.75     0.89     7.48     0  02:31        0.89
  WS02006111           JUNCTION     0.22     0.28     6.98     0  02:31        0.28
  WS02006112           JUNCTION     0.85     1.01     6.90     0  02:35        1.01
  WS02006113           JUNCTION     0.34     0.44     7.33     0  02:32        0.44
  WS02006115           JUNCTION     0.57     0.72     6.86     0  02:35        0.72
  WS02006116           JUNCTION     0.65     0.80     6.84     0  02:35        0.80
  WS02006230           JUNCTION     0.73     0.95     7.70     0  02:32        0.95
  WS02006231           JUNCTION     0.49     0.62     7.75     0  02:32        0.62
  WS02006232           JUNCTION     0.63     0.75     7.79     0  02:33        0.75
  WS02006234           JUNCTION     0.55     0.70     7.85     0  04:07        0.70
  WS02006235           JUNCTION     0.58     0.74     7.90     0  04:07        0.74
  WS02006238           JUNCTION     0.61     0.76     7.91     0  04:07        0.76
  WS02006240           JUNCTION     0.51     0.70     7.99     0  04:08        0.70
  WS02006242           JUNCTION     0.57     0.77     8.04     0  04:08        0.77
  WS02006243           JUNCTION     0.45     0.66     8.08     0  04:07        0.66
  WS02006245           JUNCTION     0.43     0.63     8.12     0  04:08        0.63
  WS02006247           JUNCTION     0.44     0.64     8.14     0  04:08        0.64
  WS02006248           JUNCTION     0.39     0.58     8.17     0  04:09        0.58
  WS02006249           JUNCTION     0.42     0.60     8.20     0  04:09        0.60
  WS02006239           JUNCTION     0.57     0.74     7.95     0  04:08        0.74
  WS02006251           JUNCTION     0.41     0.62     8.29     0  04:09        0.62
  WS02006252           JUNCTION     0.37     0.58     8.83     0  07:00        0.58
  WS02006253           JUNCTION     0.44     0.65     8.29     0  04:09        0.65
  WS02006256           JUNCTION     1.04     1.20     8.14     0  02:30        1.20
  WS02004138           JUNCTION     0.15     0.20     7.45     0  00:00        0.19
  WS02004407           JUNCTION     0.23     0.29     6.60     0  02:36        0.29
  WS02006228           JUNCTION     0.76     0.96     7.61     0  02:31        0.96
  WS02006229           JUNCTION     0.73     0.95     7.65     0  02:31        0.95
  WS02006280           JUNCTION     0.05     0.15     8.42     0  02:18        0.15
  WS02006284           JUNCTION     0.35     0.48     8.88     0  02:18        0.48
  WS02006287           JUNCTION     0.08     0.21     9.17     0  02:17        0.21
  WSF200               JUNCTION     0.22     0.29     5.52     0  02:39        0.29
  HS02004901           JUNCTION     0.11     0.23    10.05     0  02:15        0.23
  HS02004881           JUNCTION     0.01     0.02     9.05     0  02:17        0.02
  HS02004876           JUNCTION     0.03     0.10     9.13     0  02:16        0.10
  HS02004870           JUNCTION     0.01     0.04     9.33     0  02:18        0.04
  HS02004862           JUNCTION     0.01     0.05     9.43     0  02:19        0.05
  HS02004856           JUNCTION     0.07     0.10     9.53     0  02:18        0.10
  HS02004852           JUNCTION     0.01     0.03     9.54     0  02:19        0.03
  HS02004848           JUNCTION     0.01     0.03     9.63     0  02:18        0.03
  HS02004842           JUNCTION     0.33     0.36     9.63     0  02:17        0.36
  HS02004837           JUNCTION     0.03     0.05     9.63     0  02:17        0.05
  HS02004830           JUNCTION     0.04     0.06     9.53     0  02:18        0.06
  HS02004824           JUNCTION     0.02     0.04     9.44     0  02:21        0.04
  HS02004817           JUNCTION     0.42     0.53     9.37     0  02:18        0.53
  HS02004807           JUNCTION     0.11     0.20     9.37     0  02:18        0.20
  HS02004802           JUNCTION     0.15     0.24     9.37     0  02:18        0.24
  HS02004799           JUNCTION     0.10     0.26     9.47     0  02:16        0.26
  HS02004792           JUNCTION     0.02     0.10     9.62     0  02:15        0.10
  HS02004788           JUNCTION     0.02     0.07     9.97     0  02:16        0.07
  HS02004785           JUNCTION     0.03     0.14    10.04     0  02:16        0.14
  HS02004777           JUNCTION     0.13     0.25    10.05     0  02:15        0.25
  HS02004770           JUNCTION     0.10     0.22    10.05     0  02:15        0.22
  HS02004480           JUNCTION     0.06     0.20     9.44     0  02:16        0.20
  HS02004479           JUNCTION     0.10     0.24     9.44     0  02:16        0.24
  HS02004478           JUNCTION     0.05     0.13     9.36     0  02:17        0.13
  YS02001745           JUNCTION     0.08     0.12     7.64     0  03:01        0.12
  YS02001748           JUNCTION     0.36     0.51     7.59     0  03:49        0.50
  YS02001751           JUNCTION     0.54     0.71     7.59     0  03:48        0.71
  YS02001754           JUNCTION     0.79     0.99     7.59     0  03:50        0.98
  YS02001762           JUNCTION     0.99     1.18     7.58     0  03:48        1.18
  YS02001765           JUNCTION     0.94     1.14     7.59     0  03:48        1.13
  YS02001767           JUNCTION     0.91     1.10     7.59     0  03:48        1.10
  YS02001770           JUNCTION     0.90     1.09     7.59     0  03:47        1.09
  YS02001774           JUNCTION     0.97     1.16     7.58     0  03:47        1.16
  YS02001779           JUNCTION     0.72     0.90     7.58     0  03:47        0.90
  YS02001882           JUNCTION     0.29     0.47     7.18     0  02:53        0.47
  YS02001884           JUNCTION     0.38     0.57     7.18     0  02:53        0.57
  YS02001759           JUNCTION     1.02     1.22     7.58     0  03:49        1.22
  YS02001887           JUNCTION     0.46     0.64     7.18     0  02:53        0.64
  YS02001890           JUNCTION     0.49     0.67     7.18     0  02:53        0.67
  YS02001898           JUNCTION     0.26     0.43     7.16     0  02:54        0.43
  YS02001901           JUNCTION     0.38     0.56     7.16     0  02:54        0.56
  YS02001904           JUNCTION     0.36     0.53     7.16     0  02:53        0.53
  YS02001907           JUNCTION     0.69     0.87     7.16     0  02:54        0.87
  YS02001910           JUNCTION     0.48     0.66     7.16     0  02:53        0.66
  YS02001915           JUNCTION     0.28     0.44     7.16     0  02:53        0.44
  YS02001918           JUNCTION     0.08     0.10     7.16     0  03:03        0.10
  YS02001619           JUNCTION     0.50     0.66     7.59     0  03:48        0.66
  YS02001629           JUNCTION     0.85     1.04     7.59     0  03:47        1.04
  YS02001641           JUNCTION     0.96     1.16     7.60     0  03:46        1.15
  YS02001644           JUNCTION     0.96     1.16     7.59     0  03:49        1.16
  YS02001652           JUNCTION     0.81     1.00     7.59     0  03:46        0.99
  YS02001655           JUNCTION     0.57     0.74     7.59     0  03:45        0.73
  YS02001920           JUNCTION     0.18     0.21     7.22     0  03:02        0.21
  YS02001923           JUNCTION     0.06     0.09     7.35     0  03:02        0.09
  YS02001926           JUNCTION     0.14     0.18     7.62     0  03:01        0.18
  YS02001929           JUNCTION     0.07     0.09     7.78     0  03:01        0.09
  YS02001658           JUNCTION     0.30     0.44     7.58     0  03:47        0.44
  YS02001661           JUNCTION     0.14     0.20     7.60     0  02:45        0.20
  YS02001664           JUNCTION     0.07     0.12     8.04     0  02:45        0.12
  YS02001622           JUNCTION     0.52     0.68     7.59     0  03:48        0.68
  YS02001633           JUNCTION     0.94     1.14     7.59     0  03:46        1.14
  YS02001649           JUNCTION     1.00     1.19     7.58     0  03:47        1.19
  YS02001757           JUNCTION     1.12     1.32     7.58     0  03:47        1.32
  YS02001895           JUNCTION     0.25     0.43     7.17     0  02:54        0.43
  YS02001625           JUNCTION     0.81     0.99     7.59     0  03:49        0.98
  YS02163301           JUNCTION     0.88     1.07     7.59     0  03:48        1.07
  YS02163601           JUNCTION     1.00     1.20     7.60     0  03:46        1.19
  YS02164001           JUNCTION     0.94     1.14     7.60     0  03:46        1.13
  YS02001647           JUNCTION     0.79     0.98     7.59     0  03:49        0.98
  YSB1154              JUNCTION     0.24     0.39     9.44     0  02:16        0.39
  YSB6556              JUNCTION     0.13     0.28     9.44     0  02:16        0.27
  YSB1174              JUNCTION     0.19     0.34     9.44     0  02:16        0.34
  YSB1171              JUNCTION     0.39     0.54     9.44     0  02:16        0.54
  YS02006553           JUNCTION     0.69     0.88     7.16     0  02:54        0.88
  YS02006561           JUNCTION     0.14     0.23     6.89     0  02:50        0.23
  YS02006556           JUNCTION     0.66     0.85     7.16     0  02:54        0.85
  YS02006558           JUNCTION     0.71     0.89     7.16     0  02:54        0.89
  YS02001783           JUNCTION     0.24     0.41     6.55     0  02:54        0.41
  YS02001784           JUNCTION     0.28     0.44     6.51     0  02:55        0.44
  YS02001786           JUNCTION     0.24     0.37     6.40     0  02:55        0.37
  YS02001788           JUNCTION     0.17     0.28     6.26     0  02:55        0.28
  YS02001790           JUNCTION     0.21     0.34     5.99     0  02:55        0.34
  YS02001791           JUNCTION     0.14     0.22     5.69     0  02:55        0.22
  YS02001793           JUNCTION     0.09     0.14     4.97     0  02:34        0.14
  WS02004139           JUNCTION     0.61     0.73     5.64     0  02:40        0.73
  WSC                  OUTFALL      0.31     0.39     1.06     0  02:43        0.39
  3                    OUTFALL      0.08     0.20     6.20     0  02:30        0.20
  4                    OUTFALL      0.02     0.10     7.10     0  04:09        0.10
  5                    OUTFALL      0.00     0.00     5.00     0  00:00        0.00
  JK-storage           STORAGE      0.54     3.88     4.68     0  03:20        3.88
  CC-storage           STORAGE      0.37     0.53     7.53     0  03:49        0.53
  XR-storage           STORAGE      4.95     7.46     5.46     0  06:05        7.46
  
  
  *******************
  Node Inflow Summary
  *******************
  
  -------------------------------------------------------------------------------------------------
                                  Maximum  Maximum                  Lateral       Total        Flow
                                  Lateral    Total  Time of Max      Inflow      Inflow     Balance
                                   Inflow   Inflow   Occurrence      Volume      Volume       Error
  Node                 Type           LPS      LPS  days hr:min    10^6 ltr    10^6 ltr     Percent
  -------------------------------------------------------------------------------------------------
  WS02001211           JUNCTION      7.35   386.71     0  02:40       0.207        7.27       0.478
  WS02001212           JUNCTION      0.00   385.86     0  02:40           0        7.23       0.282
  WS02001213           JUNCTION      0.00   385.47     0  02:40           0        7.21       0.362
  WS02003069           JUNCTION      0.32   900.75     0  02:41     0.00902        14.8       0.213
  WS02003072           JUNCTION      0.00   900.69     0  02:42           0        14.8       0.261
  WS02003073           JUNCTION      1.82   902.48     0  02:42      0.0514        14.8       0.297
  WS02003060           JUNCTION     16.53   900.42     0  02:41       0.466        14.8       0.202
  WS02003066           JUNCTION      0.00   499.54     0  02:39           0        7.24       0.063
  WS02003059           JUNCTION      0.00   385.34     0  02:41           0        7.19       0.515
  WS02003067           JUNCTION      0.00   499.54     0  02:39           0        7.25       0.133
  WS02004401           JUNCTION      0.00   503.08     0  02:34           0        7.49       0.294
  WS02004402           JUNCTION      0.00   502.76     0  02:34           0        7.47       0.277
  WS02004403           JUNCTION      0.00   502.46     0  02:35           0        7.45       0.251
  WS02004404           JUNCTION      0.16   502.61     0  02:36     0.00457        7.43       0.189
  WS02004406           JUNCTION      0.00   502.56     0  02:36           0         7.4       0.460
  WS02004409           JUNCTION      0.00   502.49     0  02:36           0        7.36       0.232
  WS02004410           JUNCTION      0.00   501.46     0  02:37           0        7.34       0.261
  WS02004411           JUNCTION      0.00   500.55     0  02:37           0        7.32       0.267
  WS02004412           JUNCTION      0.00   500.00     0  02:38           0         7.3       0.288
  WS02004413           JUNCTION      0.00   499.63     0  02:38           0        7.28       0.424
  WS02004405           JUNCTION      0.04   502.62     0  02:36     0.00107        7.42       0.282
  WS02006109           JUNCTION      1.23   501.18     0  02:32      0.0347        7.59       0.277
  WS02006110           JUNCTION      0.00   501.18     0  02:32           0        7.57       0.280
  WS02006111           JUNCTION      0.00   518.19     0  02:32           0        7.54       0.056
  WS02006112           JUNCTION      9.50   510.23     0  02:31       0.027        7.56       0.396
  WS02006113           JUNCTION      0.00   501.53     0  02:32           0        7.55       0.137
  WS02006115           JUNCTION      0.00   506.68     0  02:31           0        7.53       0.279
  WS02006116           JUNCTION      0.00   504.10     0  02:34           0        7.51       0.258
  WS02006230           JUNCTION     10.28   397.29     0  04:08        0.29        6.67       0.178
  WS02006231           JUNCTION      0.00   387.07     0  04:07           0        6.39       0.167
  WS02006232           JUNCTION      0.00   387.08     0  04:07           0        6.41       0.255
  WS02006234           JUNCTION      0.00   387.17     0  04:06           0        6.42       0.132
  WS02006235           JUNCTION      0.00   387.19     0  04:06           0        6.46       0.168
  WS02006238           JUNCTION      0.00   343.48     0  05:10           0        4.46       0.178
  WS02006240           JUNCTION      0.00   337.65     0  05:10           0        4.46       0.271
  WS02006242           JUNCTION      0.00   334.65     0  05:10           0        4.46       0.330
  WS02006243           JUNCTION      0.00   334.96     0  07:01           0        4.45      -0.077
  WS02006245           JUNCTION      0.00   340.58     0  07:01           0        4.46       0.249
  WS02006247           JUNCTION      0.00   346.28     0  07:00           0        4.47       0.151
  WS02006248           JUNCTION      0.00   351.36     0  07:00           0        4.47       0.075
  WS02006249           JUNCTION      0.00   403.38     0  03:56           0        4.84       0.237
  WS02006239           JUNCTION      0.00   341.99     0  05:10           0        4.46       0.270
  WS02006251           JUNCTION      0.08   403.54     0  03:51     0.00217        4.88       0.178
  WS02006252           JUNCTION      0.00   400.00     0  03:50           0         4.7       0.009
  WS02006253           JUNCTION      1.44    42.33     0  02:17     0.00349       0.184       2.108
  WS02006256           JUNCTION      0.00   600.00     0  00:30           0        4.67       0.058
  WS02004138           JUNCTION      0.00   380.00     0  00:00           0         7.1       0.085
  WS02004407           JUNCTION      0.00   502.52     0  02:36           0        7.36       0.104
  WS02006228           JUNCTION      0.00   499.94     0  02:32           0        7.57       0.199
  WS02006229           JUNCTION      0.00   499.84     0  02:31           0        7.58       0.175
  WS02006280           JUNCTION      0.00   216.66     0  02:18           0       0.924       0.007
  WS02006284           JUNCTION      0.10   216.66     0  02:17      0.0027       0.925       0.116
  WS02006287           JUNCTION      0.00   216.54     0  02:17           0       0.923       0.079
  WSF200               JUNCTION      0.00   499.55     0  02:39           0        7.24       0.060
  HS02004901           JUNCTION     11.75    11.75     0  02:10      0.0324      0.0326       5.696
  HS02004881           JUNCTION      4.76    41.21     0  02:17      0.0142       0.149       0.201
  HS02004876           JUNCTION      7.61    36.76     0  02:17      0.0271       0.135       0.391
  HS02004870           JUNCTION      8.41    29.30     0  02:17      0.0268       0.108       0.099
  HS02004862           JUNCTION      6.94    21.43     0  02:18      0.0324      0.0817       0.207
  HS02004856           JUNCTION      6.23    14.54     0  02:17      0.0202      0.0507       2.920
  HS02004852           JUNCTION      0.00     8.69     0  02:18           0      0.0306       0.166
  HS02004848           JUNCTION     13.89    13.89     0  02:20      0.0639      0.0639       0.068
  HS02004842           JUNCTION      0.00     5.68     0  02:30           0      0.0463      39.060
  HS02004837           JUNCTION     19.86    24.67     0  02:17       0.226       0.259       0.314
  HS02004830           JUNCTION      0.15    24.80     0  02:17     0.00423       0.249       0.497
  HS02004824           JUNCTION     15.66    40.27     0  02:21      0.0837       0.332       0.163
  HS02004817           JUNCTION      0.60    40.87     0  02:21      0.0169       0.348       5.027
  HS02004807           JUNCTION     15.82    55.30     0  02:19      0.0493       0.381       1.122
  HS02004802           JUNCTION      0.00    55.62     0  02:20           0       0.377       1.090
  HS02004799           JUNCTION     12.19   137.51     0  02:15      0.0399       0.481       0.476
  HS02004792           JUNCTION     54.38   125.56     0  02:15       0.174       0.442       0.093
  HS02004788           JUNCTION     18.21    73.11     0  02:15       0.102       0.269       0.144
  HS02004785           JUNCTION      0.15    55.24     0  02:15     0.00423       0.168       0.287
  HS02004777           JUNCTION      0.03    55.54     0  02:13    0.000846       0.169       3.165
  HS02004770           JUNCTION     46.08    56.61     0  02:12       0.139        0.17       1.860
  HS02004480           JUNCTION      0.00   162.18     0  02:16           0       0.562       0.130
  HS02004479           JUNCTION      0.00    25.16     0  02:17           0      0.0929       0.792
  HS02004478           JUNCTION      0.00   216.52     0  02:17           0       0.923       0.067
  YS02001745           JUNCTION     79.77    79.77     0  03:01       0.861       0.861       0.098
  YS02001748           JUNCTION      0.04    79.81     0  03:01     0.00127       0.861       0.238
  YS02001751           JUNCTION      0.01   108.07     0  02:50     0.00031       0.859       1.123
  YS02001754           JUNCTION      0.26   102.07     0  02:48     0.00733       0.857       1.980
  YS02001762           JUNCTION      0.00   108.88     0  02:51           0       0.951       2.080
  YS02001765           JUNCTION      0.00   120.86     0  02:44           0        0.95       2.316
  YS02001767           JUNCTION      0.54   120.71     0  02:55      0.0151       0.966       3.256
  YS02001770           JUNCTION    102.39   122.10     0  02:54           1        1.03       2.583
  YS02001774           JUNCTION      0.00    42.97     0  02:14           0       0.086      34.936
  YS02001779           JUNCTION      0.01    23.59     0  02:35    0.000141      0.0362      39.351
  YS02001882           JUNCTION      0.00     4.18     0  02:09           0     0.00541      45.589
  YS02001884           JUNCTION      0.00    11.60     0  02:06           0      0.0217      29.237
  YS02001759           JUNCTION    100.07   209.06     0  02:51       0.937        1.85       1.177
  YS02001887           JUNCTION    131.64   131.64     0  02:42        1.12        1.13       0.643
  YS02001890           JUNCTION      0.00   130.95     0  02:46           0         1.1       0.720
  YS02001898           JUNCTION      0.00   130.43     0  02:46           0        1.09       0.205
  YS02001901           JUNCTION      0.00   130.08     0  02:46           0        1.09       0.512
  YS02001904           JUNCTION      0.00   129.77     0  02:47           0        1.09       0.476
  YS02001907           JUNCTION      0.00   236.01     0  02:55           0        2.34       0.956
  YS02001910           JUNCTION      0.00   107.96     0  03:01           0        1.26       0.818
  YS02001915           JUNCTION     71.39   107.58     0  03:01       0.736        1.26       0.366
  YS02001918           JUNCTION      0.00    36.54     0  03:02           0       0.527       0.220
  YS02001619           JUNCTION     69.43    69.43     0  02:58       0.726       0.726       0.548
  YS02001629           JUNCTION      0.00    87.89     0  03:04           0       0.686       2.061
  YS02001641           JUNCTION      0.00   155.40     0  03:02           0        1.46       1.305
  YS02001644           JUNCTION     75.80   233.54     0  03:02       0.826        2.26       1.036
  YS02001652           JUNCTION      0.00   124.67     0  02:59           0       0.808       2.053
  YS02001655           JUNCTION      0.15   121.85     0  03:06     0.00434       0.819       1.332
  YS02001920           JUNCTION      2.87    36.56     0  03:02      0.0809       0.529       0.394
  YS02001923           JUNCTION      0.04    33.69     0  03:01     0.00106       0.448       0.069
  YS02001926           JUNCTION      0.05    33.72     0  03:01     0.00147       0.449       0.491
  YS02001929           JUNCTION     33.68    33.68     0  03:01       0.448       0.448       0.067
  YS02001658           JUNCTION      0.00    93.34     0  02:45           0       0.817       0.292
  YS02001661           JUNCTION      0.00    93.34     0  02:45           0       0.818       0.079
  YS02001664           JUNCTION     93.34    93.34     0  02:45       0.818       0.818       0.021
  YS02001622           JUNCTION      0.00    81.47     0  02:54           0       0.722       1.708
  YS02001633           JUNCTION     77.07   165.13     0  03:03        0.85        1.51       1.881
  YS02001649           JUNCTION      0.00   321.31     0  03:04           0        2.99       1.138
  YS02001757           JUNCTION      0.00   583.16     0  03:02           0         5.6       1.646
  YS02001895           JUNCTION      0.00   130.68     0  02:46           0        1.09       0.345
  YS02001625           JUNCTION      0.00    81.65     0  03:07           0        0.71       3.974
  YS02163301           JUNCTION      0.00    94.96     0  03:05           0       0.682       2.981
  YS02163601           JUNCTION      0.11   153.84     0  03:04      0.0031        1.48       1.912
  YS02164001           JUNCTION      0.00   152.85     0  03:04           0        1.46       1.215
  YS02001647           JUNCTION      0.00   236.44     0  03:03           0        2.22       0.955
  YSB1154              JUNCTION     13.53    13.53     0  02:15      0.0483      0.0496       2.997
  YSB6556              JUNCTION      0.00    13.53     0  02:17           0      0.0506       2.527
  YSB1174              JUNCTION     13.37    13.37     0  02:09      0.0352      0.0362       3.680
  YSB1171              JUNCTION      0.00    25.15     0  02:15           0      0.0923       7.355
  YS02006553           JUNCTION      0.00   236.03     0  02:56           0        2.32       0.620
  YS02006561           JUNCTION      0.00   352.80     0  02:50           0        3.29       0.021
  YS02006556           JUNCTION      0.00   236.09     0  02:57           0        2.33       0.448
  YS02006558           JUNCTION    111.46   346.26     0  02:54        1.02        3.32       0.137
  YS02001783           JUNCTION      0.00   346.27     0  02:50           0        3.29       0.048
  YS02001784           JUNCTION      1.06   347.27     0  02:54      0.0299        3.32       0.078
  YS02001786           JUNCTION      0.06   347.31     0  02:55     0.00159        3.32       0.076
  YS02001788           JUNCTION      0.07   347.37     0  02:55       0.002        3.32       0.044
  YS02001790           JUNCTION      0.15   347.52     0  02:55     0.00437        3.32       0.054
  YS02001791           JUNCTION      0.00   347.52     0  02:55           0        3.32       0.027
  YS02001793           JUNCTION      0.00   347.52     0  02:56           0        3.32       0.011
  WS02004139           JUNCTION      0.32   394.45     0  00:00     0.00905         7.1       0.567
  WSC                  OUTFALL       0.00   902.45     0  02:43           0        14.8       0.000
  3                    OUTFALL       0.00   486.10     0  02:30           0        2.64       0.000
  4                    OUTFALL       0.00   100.32     0  04:09           0       0.355       0.000
  5                    OUTFALL       0.00     0.00     0  00:00           0           0       0.000 ltr
  JK-storage           STORAGE       0.00   347.52     0  02:56           0        3.47     -25.724
  CC-storage           STORAGE       0.00   583.11     0  03:02           0        5.51       0.295
  XR-storage           STORAGE     329.23   329.23     0  02:54        7.08        7.68      -0.000
  
  
  **********************
  Node Surcharge Summary
  **********************
  
  Surcharging occurs when water rises above the top of the highest conduit.
  ---------------------------------------------------------------------
                                               Max. Height   Min. Depth
                                   Hours       Above Crown    Below Rim
  Node                 Type      Surcharged         Meters       Meters
  ---------------------------------------------------------------------
  WS02006109           JUNCTION        1.60          0.110        1.710
  WS02006112           JUNCTION        0.15          0.013        1.667
  WS02006232           JUNCTION        1.96          0.049        1.431
  WS02006235           JUNCTION        0.73          0.026        1.264
  WS02006238           JUNCTION        1.17          0.045        1.385
  WS02006242           JUNCTION        0.85          0.038        0.782
  WS02006239           JUNCTION        0.10          0.002        1.288
  WS02006252           JUNCTION        2.26          0.185        0.915
  WS02006228           JUNCTION        1.39          0.129        2.071
  YS02001762           JUNCTION        4.45          0.183        0.967
  YS02001765           JUNCTION        3.69          0.135        0.965
  YS02001767           JUNCTION        2.94          0.098        0.932
  YS02001770           JUNCTION        1.65          0.061        0.859
  YS02001774           JUNCTION        4.32          0.160        0.890
  YS02001759           JUNCTION        4.74          0.217        0.993
  YS02001641           JUNCTION        4.03          0.159        0.941
  YS02001644           JUNCTION        4.15          0.163        0.757
  YS02001633           JUNCTION        3.33          0.119        0.941
  YS02001649           JUNCTION        4.54          0.194        0.856
  YS02001757           JUNCTION        5.36          0.320        0.890
  YS02163301           JUNCTION        2.15          0.072        0.958
  YS02163601           JUNCTION        4.47          0.197        0.883
  YS02164001           JUNCTION        3.59          0.138        0.962
  
  
  *********************
  Node Flooding Summary
  *********************
  
  No nodes were flooded.
  
  
  **********************
  Storage Volume Summary
  **********************
  
  --------------------------------------------------------------------------------------------------
                         Average     Avg  Evap Exfil       Maximum     Max    Time of Max    Maximum
                          Volume    Pcnt  Pcnt  Pcnt        Volume    Pcnt     Occurrence    Outflow
  Storage Unit           1000 m3    Full  Loss  Loss       1000 m3    Full    days hr:min        LPS
  --------------------------------------------------------------------------------------------------
  JK-storage               0.027       9     0     0         0.195      67       0  03:20     600.00
  CC-storage               1.037       7     0     0         1.482       9       0  03:49     400.00
  XR-storage               0.594      64     0     0         0.895      97       0  06:05     380.00
  
  
  ***********************
  Outfall Loading Summary
  ***********************
  
  -----------------------------------------------------------
                         Flow       Avg       Max       Total
                         Freq      Flow      Flow      Volume
  Outfall Node           Pcnt       LPS       LPS    10^6 ltr
  -----------------------------------------------------------
  WSC                  100.00    604.65    902.45      14.763
  3                     91.51    143.56    486.10       2.645
  4                     33.97     45.70    100.32       0.355
  5                      0.00      0.00      0.00       0.000
  -----------------------------------------------------------
  System                56.37    793.91   1147.81      17.763
  
  
  ********************
  Link Flow Summary
  ********************
  
  -----------------------------------------------------------------------------
                                 Maximum  Time of Max   Maximum    Max/    Max/
                                  |Flow|   Occurrence   |Veloc|    Full    Full
  Link                 Type          LPS  days hr:min     m/sec    Flow   Depth
  -----------------------------------------------------------------------------
  WS02003066WSF200     CONDUIT    499.55     0  02:39      2.74    0.08    0.22
  WS02006287WS02006284 CONDUIT    216.56     0  02:17      1.65    0.10    0.22
  WS02006284WS02006280 CONDUIT    216.66     0  02:18      1.89    0.09    0.20
  WS02006280WS02006229 CONDUIT    216.67     0  02:18      3.04    0.05    0.15
  WS02006229WS02006228 CONDUIT    499.94     0  02:32      0.99    1.66    1.00
  WS02006256WS02006235 CONDUIT    158.11     0  00:23      2.30    1.67    1.00
  WS02006253WS02006251 CONDUIT     42.46     0  02:16      0.50    0.13    0.90
  WS02006252WS02006251 CONDUIT    400.14     0  05:40      3.18    1.47    1.00
  WS02006251WS02006249 CONDUIT    403.38     0  03:56      1.16    1.16    0.87
  WS02006249WS02006248 CONDUIT    351.36     0  07:00      1.16    1.92    0.83
  WS02006248WS02006247 CONDUIT    346.28     0  07:00      1.12    0.75    0.87
  WS02006247WS02006245 CONDUIT    340.58     0  07:01      1.08    2.70    0.90
  WS02006245WS02006243 CONDUIT    334.96     0  07:01      1.08    0.99    0.92
  WS02006243WS02006242 CONDUIT    334.65     0  05:10      0.96    0.72    0.97
  WS02006242WS02006240 CONDUIT    337.65     0  05:10      0.90    1.34    0.99
  WS02006240WS02006239 CONDUIT    341.99     0  05:10      0.94    1.08    1.00
  WS02006239WS02006238 CONDUIT    343.48     0  05:10      0.91    1.10    1.00
  WS02006238WS02006235 CONDUIT    343.57     0  05:10      0.91    0.77    1.00
  WS02006235WS02006234 CONDUIT    387.17     0  04:06      1.04    4.08    0.98
  WS02006234WS02006232 CONDUIT    387.08     0  04:07      1.02    0.78    1.00
  WS02006232WS02006231 CONDUIT    387.07     0  04:07      1.05    0.81    0.94
  WS02006231WS02006230 CONDUIT    387.01     0  04:08      1.35    5.87    0.85
  WS02006230WS02006229 CONDUIT    397.39     0  04:11      1.03    8.84    1.00
  WS02006228WS02006109 CONDUIT    499.95     0  02:32      0.99    2.18    1.00
  WS02006116WS02004401 CONDUIT    503.08     0  02:34      0.77    0.69    0.81
  WS02006115WS02006116 CONDUIT    504.10     0  02:34      0.83    0.65    0.73
  WS02006113WS02006111 CONDUIT    518.19     0  02:32      2.40    0.62    0.45
  WS02006112WS02006115 CONDUIT    506.68     0  02:31      0.71    0.30    0.86
  WS02006111WS02006112 CONDUIT    504.68     0  02:31      1.42    0.24    0.67
  WS02006110WS02006113 CONDUIT    501.53     0  02:32      1.20    0.46    0.77
  WS02006109WS02006110 CONDUIT    501.18     0  02:32      1.00    0.96    0.99
  WS02004411WS02004412 CONDUIT    500.00     0  02:38      0.89    0.71    0.67
  WS02004401WS02004402 CONDUIT    502.76     0  02:34      0.80    0.60    0.84
  WS02004413WS02003067 CONDUIT    499.54     0  02:39      1.07    0.21    0.58
  WS02004412WS02004413 CONDUIT    499.63     0  02:38      0.78    0.33    0.76
  WS02004410WS02004411 CONDUIT    500.55     0  02:37      0.91    0.68    0.66
  WS02004409WS02004410 CONDUIT    501.46     0  02:37      0.94    0.65    0.65
  WS02004407WS02004409 CONDUIT    502.49     0  02:36      1.43    0.18    0.46
  WS02004406WS02004407 CONDUIT    502.52     0  02:36      1.00    0.22    0.61
  WS02004405WS02004406 CONDUIT    502.56     0  02:36      0.66    0.99    0.94
  WS02004404WS02004405 CONDUIT    502.58     0  02:36      0.88    4.92    0.94
  WS02004403WS02004404 CONDUIT    502.45     0  02:36      0.75    0.36    0.90
  WS02004402WS02004403 CONDUIT    502.46     0  02:35      0.79    0.72    0.86
  WS02004139WS02001211 CONDUIT    379.36     0  02:40      0.90    0.48    0.59
  WS02004138WS02004139 CONDUIT    394.13     0  00:00      3.62    0.08    0.44
  WS02003067WS02003066 CONDUIT    499.54     0  02:39      1.16    0.16    0.41
  WS02001213WS02003059 CONDUIT    385.34     0  02:41      0.89    0.64    0.77
  WS02001212WS02001213 CONDUIT    385.47     0  02:40      1.32    0.59    0.46
  WS02001211WS02001212 CONDUIT    385.86     0  02:40      0.78    0.29    0.64
  WS02003072WS02003073 CONDUIT    900.66     0  02:42      1.70    1.95    0.47
  WS02003069WS02003072 CONDUIT    900.69     0  02:42      1.60    0.43    0.50
  WS02003060WS02003069 CONDUIT    900.43     0  02:41      1.85    0.35    0.45
  WS02003059WS02003060 CONDUIT    385.40     0  02:41      0.93    0.25    0.65
  HS02004901HS02004770 CONDUIT     10.92     0  02:14      0.05    0.04    0.33
  HS02004876HS02004881 CONDUIT     36.84     0  02:17      0.59    0.39    0.09
  HS02004870HS02004876 CONDUIT     29.28     0  02:18      0.41    0.02    0.10
  HS02004842HS02004848 CONDUIT      5.68     0  02:30      0.03    0.00    0.28
  HS02004837HS02004842 CONDUIT      5.87     0  02:31      0.42    0.00    0.29
  HS02004830HS02004837 CONDUIT     24.65     0  02:17      0.45    0.02    0.08
  HS02004824HS02004830 CONDUIT     24.80     0  02:18      0.49    0.03    0.07
  HS02004817HS02004824 CONDUIT     40.27     0  02:21      0.17    0.02    0.40
  HS02004770HS02004777 CONDUIT     55.51     0  02:13      0.23    0.10    0.34
  HS02004799HS02004480 CONDUIT    137.28     0  02:16      0.61    0.17    0.32
  HS02004792HS02004799 CONDUIT    125.49     0  02:15      0.70    0.08    0.26
  HS02004788HS02004792 CONDUIT     73.05     0  02:16      0.85    0.05    0.12
  HS02004785HS02004788 CONDUIT     55.14     0  02:16      0.53    0.42    0.15
  HS02004777HS02004785 CONDUIT     55.09     0  02:15      0.28    0.07    0.28
  HS02004480HS02004478 CONDUIT    162.11     0  02:16      0.98    0.68    0.24
  HS02004479HS02004480 CONDUIT     25.40     0  02:18      0.15    0.02    0.31
  HS02004862HS02004870 CONDUIT     21.39     0  02:19      0.48    0.02    0.06
  HS02004848HS02004852 CONDUIT      8.69     0  02:18      0.32    0.01    0.04
  HS02004856HS02004862 CONDUIT     14.51     0  02:18      0.35    0.01    0.06
  HS02004852HS02004856 CONDUIT      8.65     0  02:19      0.13    0.01    0.09
  HS02004802HS02004478 CONDUIT     56.03     0  02:21      0.31    0.05    0.26
  HS02004478WS02006287 CONDUIT    216.54     0  02:17      1.35    0.06    0.18
  HS02004817HS02004807 CONDUIT     41.45     0  02:23      0.12    0.02    0.52
  HS02004807HS02004802 CONDUIT     55.62     0  02:20      0.26    0.11    0.31
  YS02001759YS02001757 CONDUIT    209.63     0  02:54      0.27    0.15    1.00
  YS02001762YS02001759 CONDUIT    109.08     0  02:51      0.18    0.13    1.00
  YS02001765YS02001762 CONDUIT    108.88     0  02:51      0.23    0.10    1.00
  YS02001770YS02001767 CONDUIT    120.18     0  02:55      0.30    0.48    1.00
  YS02001774YS02001770 CONDUIT     42.97     0  02:14      0.14    0.03    1.00
  YS02001779YS02001774 CONDUIT     23.59     0  02:35      0.07    0.01    0.95
  YS02001649YS02001757 CONDUIT    323.00     0  03:04      0.41    0.20    1.00
  YS02001767YS02001765 CONDUIT    120.86     0  02:44      0.25    0.15    1.00
  YS02006561YS02001783 CONDUIT    346.27     0  02:50      1.84    0.18    0.40
  YS02001783YS02001784 CONDUIT    346.21     0  02:54      1.27    0.48    0.53
  YS02001784YS02001785 CONDUIT    347.25     0  02:55      1.36    0.81    0.51
  YS02001788YS02001790 CONDUIT    347.37     0  02:55      1.92    0.26    0.39
  YS02001790YS02001791 CONDUIT    347.52     0  02:55      2.20    0.38    0.35
  YS02001791YS02001793 CONDUIT    347.52     0  02:56      4.53    0.15    0.22
  YS02001910YS02001907 CONDUIT    108.22     0  03:01      0.49    0.06    0.76
  YS02001786YS02001788 CONDUIT    347.30     0  02:55      1.80    0.67    0.41
  YS02001915YS02001910 CONDUIT    107.96     0  03:01      0.45    0.05    0.55
  YS02001918YS02001915 CONDUIT     36.52     0  03:03      0.44    0.02    0.27
  YS02001923YS02001920 CONDUIT     33.69     0  03:02      0.47    0.02    0.15
  YS02001926YS02001923 CONDUIT     33.65     0  03:01      0.51    0.05    0.14
  YS02001929YS02001926 CONDUIT     33.67     0  03:01      0.54    0.02    0.13
  YS02001920YS02001918 CONDUIT     36.54     0  03:02      0.48    0.04    0.15
  YS02001629YS02163301 CONDUIT     94.96     0  03:05      0.12    0.12    1.00
  YS02001619YS02001622 CONDUIT     81.47     0  02:54      0.66    0.12    0.67
  YS02001622YS02001625 CONDUIT     81.65     0  03:07      0.25    0.04    0.83
  YS02001625YS02001629 CONDUIT     87.89     0  03:04      0.25    0.04    0.82
  YS02163301YS02001633 CONDUIT     89.52     0  03:03      0.11    0.08    1.00
  YS02163601YS02164001 CONDUIT    152.85     0  03:04      0.19    0.14    1.00
  YS02164001YS02001641 CONDUIT    155.40     0  03:02      0.20    0.21    1.00
  YS02001641YS02001644 CONDUIT    158.38     0  03:02      0.20    0.51    1.00
  YS02001647YS02001649 CONDUIT    245.64     0  03:03      0.32    0.13    0.99
  YS02006553YS02006556 CONDUIT    236.09     0  02:57      0.34    0.20    0.84
  YS02006556YS02006558 CONDUIT    236.16     0  03:02      0.33    0.19    0.87
  YSB6556YSB1171       CONDUIT     13.75     0  02:19      0.06    0.01    0.58
  YS02001907YS02006553 CONDUIT    236.03     0  02:56      0.27    0.28    0.96
  YS02006558YS02006561 CONDUIT    352.80     0  02:50      2.40    0.78    0.52
  YS02001633YS02163601 CONDUIT    153.73     0  03:04      0.20    0.16    1.00
  YS02001644YS02001647 CONDUIT    236.44     0  03:03      0.31    0.14    0.99
  YS02001745YS02001748 CONDUIT     79.77     0  03:01      1.42    0.03    0.26
  YS02001748YS02001751 CONDUIT    108.06     0  02:50      1.10    0.05    0.60
  YS02001751YS02001754 CONDUIT    101.81     0  02:48      0.97    0.05    0.82
  YS02001754YS02001757 CONDUIT     99.03     0  02:48      0.33    0.04    0.99
  YS02001882YS02001884 CONDUIT      4.18     0  02:09      0.06    0.00    0.49
  YS02001884YS02001887 CONDUIT     11.60     0  02:06      0.06    0.02    0.58
  YS02001890YS02001895 CONDUIT    130.68     0  02:46      0.30    0.06    0.55
  YS02001895YS02001898 CONDUIT    130.43     0  02:46      0.48    0.23    0.41
  YS02001898YS02001901 CONDUIT    130.08     0  02:46      0.34    0.08    0.49
  YS02001901YS02001904 CONDUIT    129.77     0  02:47      0.30    0.20    0.54
  YS02001904YS02001907 CONDUIT    129.62     0  02:47      0.22    0.05    0.70
  YS02001887YS02001890 CONDUIT    130.95     0  02:46      0.25    0.22    0.63
  YS02001652YS02001649 CONDUIT    132.74     0  02:37      0.32    0.07    1.00
  YS02001655YS02001652 CONDUIT    124.67     0  02:59      1.04    0.06    0.85
  YS02001658YS02001655 CONDUIT    121.70     0  03:06      1.27    0.05    0.59
  YS02001661YS02001658 CONDUIT     93.34     0  02:45      1.48    0.04    0.27
  YS02001664YS02001661 CONDUIT     93.34     0  02:45      1.16    0.03    0.16
  YSB1154YSB6556       CONDUIT     13.53     0  02:17      0.19    0.02    0.47
  YSB1174YSB1171       CONDUIT     12.42     0  02:10      0.06    0.02    0.59
  YSB1171HS02004479    CONDUIT     25.16     0  02:17      0.54    0.02    0.46
  HS02004881HS02006253 CONDUIT     41.21     0  02:17      1.70    0.01    0.22
  YS02001793JiankangQianchi CONDUIT    347.52     0  02:56     13.22    0.03    0.56
  YS02001757CaochengTiaoxuchi CONDUIT    583.11     0  03:02      1.22    0.26    0.77
  WSF200WS02003060     CONDUIT    499.70     0  02:39      1.79    0.11    0.33
  1                    CONDUIT    902.45     0  02:43      3.24    0.31    0.39
  2                    CONDUIT    100.32     0  04:09      4.85    0.24    0.33
  3                    CONDUIT    486.10     0  02:30      9.75    0.77    0.67
  4                    CONDUIT      0.00     0  00:00      0.00    0.00    0.00
  CC-Pump-1            PUMP       200.00     0  03:00              1.00
  CC-Pump-2            PUMP       200.00     0  02:21              1.00
  JK-Pump-1            PUMP       300.00     0  00:30              1.00
  JK-Pump-2            PUMP       300.00     0  00:30              1.00
  XR-Pump-1            PUMP        95.00     0  00:00              1.00
  XR-Pump-2            PUMP        95.00     0  00:00              1.00
  XR-Pump-3            PUMP        95.00     0  00:00              1.00
  XR-Pump-4            PUMP        95.00     0  00:00              1.00
  
  
  ***************************
  Flow Classification Summary
  ***************************
  
  -------------------------------------------------------------------------------------
                      Adjusted    ---------- Fraction of Time in Flow Class ---------- 
                       /Actual         Up    Down  Sub   Sup   Up    Down  Norm  Inlet 
  Conduit               Length    Dry  Dry   Dry   Crit  Crit  Crit  Crit  Ltd   Ctrl  
  -------------------------------------------------------------------------------------
  WS02003066WSF200        1.00   0.02  0.04  0.00  0.00  0.94  0.00  0.00  0.71  0.00
  WS02006287WS02006284    1.00   0.04  0.02  0.00  0.70  0.25  0.00  0.00  0.77  0.00
  WS02006284WS02006280    1.00   0.04  0.00  0.00  0.00  0.00  0.00  0.96  0.00  0.00
  WS02006280WS02006229    1.00   0.04  0.00  0.00  0.00  0.00  0.00  0.96  0.00  0.00
  WS02006229WS02006228    1.00   0.00  0.00  0.00  1.00  0.00  0.00  0.00  0.00  0.00
  WS02006256WS02006235    1.00   0.01  0.00  0.00  0.99  0.00  0.00  0.00  0.00  0.00
  WS02006253WS02006251    1.00   0.01  0.03  0.00  0.96  0.00  0.00  0.00  0.00  0.00
  WS02006252WS02006251    1.00   0.08  0.00  0.00  0.00  0.00  0.92  0.00  0.00  0.00
  WS02006251WS02006249    1.00   0.00  0.00  0.00  1.00  0.00  0.00  0.00  0.28  0.00
  WS02006249WS02006248    1.00   0.00  0.00  0.00  0.90  0.00  0.10  0.00  0.00  0.00
  WS02006248WS02006247    1.00   0.00  0.00  0.00  0.97  0.00  0.00  0.03  0.18  0.00
  WS02006247WS02006245    1.00   0.00  0.00  0.00  0.97  0.00  0.00  0.02  0.00  0.00
  WS02006245WS02006243    1.00   0.01  0.00  0.00  0.95  0.00  0.00  0.05  0.01  0.00
  WS02006243WS02006242    1.00   0.01  0.00  0.00  0.99  0.00  0.00  0.00  0.22  0.00
  WS02006242WS02006240    1.00   0.01  0.00  0.00  0.99  0.00  0.00  0.00  0.00  0.00
  WS02006240WS02006239    1.00   0.01  0.00  0.00  0.96  0.00  0.00  0.04  0.01  0.00
  WS02006239WS02006238    1.00   0.01  0.00  0.00  0.99  0.00  0.00  0.00  0.00  0.00
  WS02006238WS02006235    1.00   0.01  0.00  0.00  0.99  0.00  0.00  0.00  0.00  0.00
  WS02006235WS02006234    1.00   0.01  0.00  0.00  0.95  0.00  0.04  0.00  0.00  0.00
  WS02006234WS02006232    1.00   0.01  0.00  0.00  0.99  0.00  0.00  0.00  0.06  0.00
  WS02006232WS02006231    1.00   0.01  0.00  0.00  0.99  0.00  0.00  0.00  0.00  0.00
  WS02006231WS02006230    1.00   0.01  0.00  0.00  0.75  0.00  0.24  0.00  0.00  0.00
  WS02006230WS02006229    1.00   0.00  0.00  0.00  0.99  0.00  0.00  0.01  0.00  0.00
  WS02006228WS02006109    1.00   0.00  0.00  0.00  1.00  0.00  0.00  0.00  0.00  0.00
  WS02006116WS02004401    1.00   0.03  0.00  0.00  0.97  0.00  0.00  0.00  0.00  0.00
  WS02006115WS02006116    1.00   0.03  0.00  0.00  0.97  0.00  0.00  0.00  0.00  0.00
  WS02006113WS02006111    1.00   0.02  0.00  0.00  0.00  0.98  0.00  0.00  0.11  0.00
  WS02006112WS02006115    1.00   0.02  0.01  0.00  0.97  0.00  0.00  0.00  0.00  0.00
  WS02006111WS02006112    1.00   0.02  0.00  0.00  0.97  0.00  0.00  0.00  0.94  0.00
  WS02006110WS02006113    1.00   0.00  0.02  0.00  0.98  0.00  0.00  0.00  0.00  0.00
  WS02006109WS02006110    1.00   0.00  0.00  0.00  1.00  0.00  0.00  0.00  0.00  0.00
  WS02004411WS02004412    1.00   0.04  0.00  0.00  0.96  0.00  0.00  0.00  0.00  0.00
  WS02004401WS02004402    1.00   0.03  0.00  0.00  0.97  0.00  0.00  0.00  0.00  0.00
  WS02004413WS02003067    1.00   0.04  0.01  0.00  0.00  0.00  0.94  0.00  0.00  0.00
  WS02004412WS02004413    1.00   0.04  0.00  0.00  0.96  0.00  0.00  0.00  0.03  0.00
  WS02004410WS02004411    1.00   0.04  0.00  0.00  0.96  0.00  0.00  0.00  0.03  0.00
  WS02004409WS02004410    1.00   0.04  0.00  0.00  0.96  0.00  0.00  0.00  0.03  0.00
  WS02004407WS02004409    1.00   0.04  0.00  0.00  0.96  0.00  0.00  0.00  0.86  0.00
  WS02004406WS02004407    1.00   0.00  0.04  0.00  0.96  0.00  0.00  0.00  0.00  0.00
  WS02004405WS02004406    1.00   0.00  0.00  0.00  1.00  0.00  0.00  0.00  0.04  0.00
  WS02004404WS02004405    1.00   0.00  0.00  0.00  1.00  0.00  0.00  0.00  0.00  0.00
  WS02004403WS02004404    1.00   0.00  0.03  0.00  0.97  0.00  0.00  0.00  0.01  0.00
  WS02004402WS02004403    1.00   0.03  0.00  0.00  0.97  0.00  0.00  0.00  0.00  0.00
  WS02004139WS02001211    1.00   0.00  0.00  0.00  1.00  0.00  0.00  0.00  0.00  0.00
  WS02004138WS02004139    1.00   0.00  0.00  0.00  1.00  0.00  0.00  0.00  1.00  0.00
  WS02003067WS02003066    1.00   0.06  0.00  0.00  0.94  0.00  0.00  0.00  0.00  0.00
  WS02001213WS02003059    1.00   0.00  0.00  0.00  1.00  0.00  0.00  0.00  0.00  0.00
  WS02001212WS02001213    1.00   0.00  0.00  0.00  0.89  0.00  0.11  0.00  0.00  0.00
  WS02001211WS02001212    1.00   0.00  0.00  0.00  1.00  0.00  0.00  0.00  0.00  0.00
  WS02003072WS02003073    1.00   0.00  0.00  0.00  0.00  0.00  0.00  1.00  0.00  0.00
  WS02003069WS02003072    1.00   0.00  0.00  0.00  1.00  0.00  0.00  0.00  0.24  0.00
  WS02003060WS02003069    1.00   0.00  0.00  0.00  1.00  0.00  0.00  0.00  0.14  0.00
  WS02003059WS02003060    1.00   0.00  0.00  0.00  1.00  0.00  0.00  0.00  0.00  0.00
  HS02004901HS02004770    1.00   0.04  0.00  0.00  0.96  0.00  0.00  0.00  0.02  0.00
  HS02004876HS02004881    1.00   0.00  0.00  0.00  1.00  0.00  0.00  0.00  0.00  0.00
  HS02004870HS02004876    1.00   0.00  0.00  0.00  1.00  0.00  0.00  0.00  0.95  0.00
  HS02004842HS02004848    1.00   0.00  0.04  0.00  0.96  0.00  0.00  0.00  0.68  0.00
  HS02004837HS02004842    1.00   0.00  0.00  0.00  1.00  0.00  0.00  0.00  0.11  0.00
  HS02004830HS02004837    1.00   0.00  0.00  0.00  1.00  0.00  0.00  0.00  0.99  0.00
  HS02004824HS02004830    1.00   0.00  0.00  0.00  1.00  0.00  0.00  0.00  0.00  0.00
  HS02004817HS02004824    1.00   0.00  0.00  0.00  1.00  0.00  0.00  0.00  1.00  0.00
  HS02004770HS02004777    1.00   0.00  0.04  0.00  0.96  0.00  0.00  0.00  0.07  0.00
  HS02004799HS02004480    1.00   0.00  0.01  0.00  0.95  0.00  0.05  0.00  0.00  0.00
  HS02004792HS02004799    1.00   0.00  0.00  0.00  1.00  0.00  0.00  0.00  0.98  0.00
  HS02004788HS02004792    1.00   0.00  0.00  0.00  1.00  0.00  0.00  0.00  0.98  0.00
  HS02004785HS02004788    1.00   0.00  0.00  0.00  1.00  0.00  0.00  0.00  0.00  0.00
  HS02004777HS02004785    1.00   0.00  0.00  0.00  1.00  0.00  0.00  0.00  0.20  0.00
  HS02004480HS02004478    1.00   0.04  0.00  0.00  0.74  0.00  0.00  0.21  0.00  0.00
  HS02004479HS02004480    1.00   0.01  0.00  0.00  0.99  0.00  0.00  0.00  0.15  0.00
  HS02004862HS02004870    1.00   0.00  0.00  0.00  1.00  0.00  0.00  0.00  0.06  0.00
  HS02004848HS02004852    1.00   0.04  0.00  0.00  0.96  0.00  0.00  0.00  0.71  0.00
  HS02004856HS02004862    1.00   0.00  0.06  0.00  0.94  0.00  0.00  0.00  0.75  0.00
  HS02004852HS02004856    1.00   0.04  0.01  0.00  0.95  0.00  0.00  0.00  0.83  0.00
  HS02004802HS02004478    1.00   0.04  0.00  0.00  0.95  0.00  0.00  0.00  0.01  0.00
  HS02004478WS02006287    1.00   0.05  0.00  0.00  0.87  0.08  0.00  0.00  0.77  0.00
  HS02004817HS02004807    1.00   0.00  0.04  0.00  0.96  0.00  0.00  0.00  0.00  0.00
  HS02004807HS02004802    1.00   0.04  0.00  0.00  0.96  0.00  0.00  0.00  0.01  0.00
  YS02001759YS02001757    1.00   0.00  0.00  0.00  1.00  0.00  0.00  0.00  0.17  0.00
  YS02001762YS02001759    1.00   0.00  0.00  0.00  1.00  0.00  0.00  0.00  0.04  0.00
  YS02001765YS02001762    1.00   0.00  0.00  0.00  1.00  0.00  0.00  0.00  0.22  0.00
  YS02001770YS02001767    1.00   0.00  0.00  0.00  1.00  0.00  0.00  0.00  0.00  0.00
  YS02001774YS02001770    1.00   0.00  0.05  0.00  0.95  0.00  0.00  0.00  0.07  0.00
  YS02001779YS02001774    1.00   0.00  0.00  0.00  1.00  0.00  0.00  0.00  0.26  0.00
  YS02001649YS02001757    1.00   0.00  0.00  0.00  1.00  0.00  0.00  0.00  0.19  0.00
  YS02001767YS02001765    1.00   0.00  0.00  0.00  1.00  0.00  0.00  0.00  0.01  0.00
  YS02006561YS02001783    1.00   0.07  0.00  0.00  0.00  0.93  0.00  0.00  0.74  0.00
  YS02001783YS02001784    1.00   0.00  0.07  0.00  0.93  0.00  0.00  0.00  0.00  0.00
  YS02001784YS02001785    1.00   0.00  0.00  0.00  1.00  0.00  0.00  0.00  0.25  0.00
  YS02001788YS02001790    1.00   0.00  0.00  0.00  0.07  0.93  0.00  0.00  0.75  0.00
  YS02001790YS02001791    1.00   0.00  0.00  0.00  0.00  1.00  0.00  0.00  0.56  0.00
  YS02001791YS02001793    1.00   0.00  0.00  0.00  0.00  1.00  0.00  0.00  0.00  0.00
  YS02001910YS02001907    1.00   0.00  0.00  0.00  0.99  0.00  0.00  0.00  0.13  0.00
  YS02001786YS02001788    1.00   0.00  0.00  0.00  0.07  0.93  0.00  0.00  0.00  0.00
  YS02001915YS02001910    1.00   0.00  0.00  0.00  1.00  0.00  0.00  0.00  0.24  0.00
  YS02001918YS02001915    1.00   0.00  0.00  0.00  1.00  0.00  0.00  0.00  0.82  0.00
  YS02001923YS02001920    1.00   0.00  0.00  0.00  1.00  0.00  0.00  0.00  1.00  0.00
  YS02001926YS02001923    1.00   0.00  0.03  0.00  0.00  0.00  0.97  0.00  0.00  0.00
  YS02001929YS02001926    1.00   0.00  0.04  0.00  0.96  0.00  0.00  0.00  0.87  0.00
  YS02001920YS02001918    1.00   0.00  0.00  0.00  1.00  0.00  0.00  0.00  0.00  0.00
  YS02001629YS02163301    1.00   0.06  0.00  0.00  0.94  0.00  0.00  0.00  0.00  0.00
  YS02001619YS02001622    1.00   0.04  0.00  0.00  0.96  0.00  0.00  0.00  0.00  0.00
  YS02001622YS02001625    1.00   0.04  0.00  0.00  0.96  0.00  0.00  0.00  0.13  0.00
  YS02001625YS02001629    1.00   0.04  0.03  0.00  0.92  0.00  0.01  0.00  0.00  0.00
  YS02163301YS02001633    1.00   0.00  0.06  0.00  0.94  0.00  0.00  0.00  0.00  0.00
  YS02163601YS02164001    1.00   0.00  0.03  0.00  0.97  0.00  0.00  0.00  0.00  0.00
  YS02164001YS02001641    1.00   0.00  0.03  0.00  0.97  0.00  0.00  0.00  0.07  0.00
  YS02001641YS02001644    1.00   0.00  0.00  0.00  1.00  0.00  0.00  0.00  0.00  0.00
  YS02001647YS02001649    1.00   0.00  0.06  0.00  0.94  0.00  0.00  0.00  0.01  0.00
  YS02006553YS02006556    1.00   0.00  0.00  0.00  1.00  0.00  0.00  0.00  0.03  0.00
  YS02006556YS02006558    1.00   0.00  0.00  0.00  1.00  0.00  0.00  0.00  0.00  0.00
  YSB6556YSB1171          1.00   0.01  0.03  0.00  0.96  0.00  0.00  0.00  0.00  0.00
  YS02001907YS02006553    1.00   0.00  0.00  0.00  1.00  0.00  0.00  0.00  0.00  0.00
  YS02006558YS02006561    1.00   0.07  0.00  0.00  0.00  0.93  0.00  0.00  0.69  0.00
  YS02001633YS02163601    1.00   0.00  0.00  0.00  1.00  0.00  0.00  0.00  0.19  0.00
  YS02001644YS02001647    1.00   0.00  0.06  0.00  0.94  0.00  0.00  0.00  0.00  0.00
  YS02001745YS02001748    1.00   0.00  0.00  0.00  0.87  0.02  0.00  0.11  0.68  0.00
  YS02001748YS02001751    1.00   0.00  0.00  0.00  0.98  0.02  0.00  0.00  0.24  0.00
  YS02001751YS02001754    1.00   0.00  0.00  0.00  0.93  0.00  0.00  0.07  0.02  0.00
  YS02001754YS02001757    1.00   0.00  0.00  0.00  1.00  0.00  0.00  0.00  0.26  0.00
  YS02001882YS02001884    1.00   0.05  0.00  0.00  0.94  0.00  0.00  0.00  0.00  0.00
  YS02001884YS02001887    1.00   0.02  0.01  0.00  0.96  0.00  0.00  0.00  0.00  0.00
  YS02001890YS02001895    1.00   0.00  0.06  0.00  0.94  0.00  0.00  0.00  0.00  0.00
  YS02001895YS02001898    1.00   0.06  0.00  0.00  0.93  0.00  0.01  0.00  0.00  0.00
  YS02001898YS02001901    1.00   0.06  0.00  0.00  0.94  0.00  0.00  0.00  0.02  0.00
  YS02001901YS02001904    1.00   0.06  0.00  0.00  0.94  0.00  0.00  0.00  0.00  0.00
  YS02001904YS02001907    1.00   0.00  0.06  0.00  0.94  0.00  0.00  0.00  0.00  0.00
  YS02001887YS02001890    1.00   0.00  0.00  0.00  0.99  0.00  0.01  0.00  0.00  0.00
  YS02001652YS02001649    1.00   0.00  0.00  0.00  1.00  0.00  0.00  0.00  0.25  0.00
  YS02001655YS02001652    1.00   0.00  0.00  0.00  0.93  0.00  0.00  0.07  0.02  0.00
  YS02001658YS02001655    1.00   0.00  0.05  0.00  0.92  0.02  0.00  0.00  0.11  0.00
  YS02001661YS02001658    1.00   0.05  0.00  0.00  0.86  0.09  0.00  0.00  0.75  0.00
  YS02001664YS02001661    1.00   0.04  0.00  0.00  0.74  0.21  0.00  0.00  0.86  0.00
  YSB1154YSB6556          1.00   0.04  0.00  0.00  0.96  0.00  0.00  0.00  0.02  0.00
  YSB1174YSB1171          1.00   0.01  0.02  0.00  0.97  0.00  0.00  0.00  0.00  0.00
  YSB1171HS02004479       1.00   0.01  0.00  0.00  0.98  0.00  0.00  0.01  0.13  0.00
  HS02004881HS02006253    1.00   0.01  0.00  0.00  0.80  0.01  0.00  0.18  0.60  0.00
  YS02001793JiankangQianchi    1.00   0.00  0.00  0.00  0.21  0.79  0.00  0.00  0.23  0.00
  YS02001757CaochengTiaoxuchi    1.00   0.00  0.08  0.00  0.92  0.00  0.00  0.00  0.00  0.00
  WSF200WS02003060        1.00   0.00  0.02  0.00  0.80  0.18  0.00  0.00  0.37  0.00
  1                       1.00   0.00  0.00  0.00  0.00  1.00  0.00  0.00  0.39  0.00
  2                       1.00   0.66  0.00  0.00  0.00  0.34  0.00  0.00  0.09  0.00
  3                       1.00   0.08  0.00  0.00  0.00  0.92  0.00  0.00  0.02  0.00
  4                       1.00   1.00  0.00  0.00  0.00  0.00  0.00  0.00  0.00  0.00
  
  
  *************************
  Conduit Surcharge Summary
  *************************
  
  ----------------------------------------------------------------------------
                                                           Hours        Hours 
                         --------- Hours Full --------   Above Full   Capacity
  Conduit                Both Ends  Upstream  Dnstream   Normal Flow   Limited
  ----------------------------------------------------------------------------
  WS02006229WS02006228        1.39      1.83      1.39      4.75         1.39
  WS02006256WS02006235        5.69      5.69      7.10      3.00         0.01
  WS02006252WS02006251        1.24      1.24      2.26      2.00         0.01
  WS02006251WS02006249        0.01      0.01      0.01      1.19         0.01
  WS02006249WS02006248        0.01      0.01      0.01      4.38         0.01
  WS02006247WS02006245        0.01      0.01      0.01      4.71         0.01
  WS02006243WS02006242        0.01      0.01      0.85      0.01         0.01
  WS02006242WS02006240        0.01      0.01      1.40      2.29         0.01
  WS02006240WS02006239        0.01      0.01      0.10      0.06         0.01
  WS02006239WS02006238        1.02      1.04      1.17      0.15         0.09
  WS02006238WS02006235        0.95      0.95      1.83      0.01         0.01
  WS02006235WS02006234        0.01      0.01      0.73      5.71         0.01
  WS02006234WS02006232        0.01      0.01      1.96      0.01         0.01
  WS02006232WS02006231        0.01      0.01      1.96      0.01         0.01
  WS02006231WS02006230        0.01      0.01      0.01      5.71         0.01
  WS02006230WS02006229        3.84      4.50      3.84      5.81         3.84
  WS02006228WS02006109        1.60      3.02      1.60      5.20         1.60
  WS02006112WS02006115        0.01      0.01      0.15      0.01         0.01
  WS02006111WS02006112        0.01      0.01      4.78      0.01         0.01
  WS02006110WS02006113        0.01      0.01      2.39      0.01         0.01
  WS02006109WS02006110        0.01      0.01      3.02      0.01         0.01
  WS02004404WS02004405        0.01      0.01      0.01      5.63         0.01
  WS02003072WS02003073        0.01      0.01      0.01      5.20         0.01
  YS02001759YS02001757        4.74      4.74      5.36      0.01         0.01
  YS02001762YS02001759        4.44      4.44      4.74      0.01         0.01
  YS02001765YS02001762        3.69      3.69      4.44      0.01         0.01
  YS02001770YS02001767        2.73      2.73      2.94      0.01         0.02
  YS02001774YS02001770        1.65      1.65      4.32      0.01         0.01
  YS02001779YS02001774        0.01      0.01      4.32      0.01         0.01
  YS02001649YS02001757        4.54      4.54      5.36      0.01         0.01
  YS02001767YS02001765        2.94      2.94      3.69      0.01         0.01
  YS02001629YS02163301        1.15      1.15      2.14      0.01         0.01
  YS02163301YS02001633        2.14      2.14      3.66      0.01         0.01
  YS02163601YS02164001        3.59      3.59      4.47      0.01         0.01
  YS02164001YS02001641        3.59      3.59      4.03      0.01         0.01
  YS02001641YS02001644        4.03      4.03      4.15      0.01         0.11
  YS02001647YS02001649        0.01      0.01      4.54      0.01         0.01
  YS02001633YS02163601        3.33      3.33      4.47      0.01         0.01
  YS02001644YS02001647        0.01      0.01      4.15      0.01         0.01
  YS02001754YS02001757        0.01      0.01      5.36      0.01         0.01
  YS02001652YS02001649        0.01      0.01      4.54      0.01         0.01
  YS02001793JiankangQianchi        0.01      0.01      1.36      0.01         0.01
  YS02001757CaochengTiaoxuchi        0.01      0.01      5.36      0.01         0.01
  
  
  ***************
  Pumping Summary
  ***************
  
  ---------------------------------------------------------------------------------------------------------
                                                  Min       Avg       Max     Total     Power    % Time Off
                        Percent   Number of      Flow      Flow      Flow    Volume     Usage    Pump Curve
  Pump                 Utilized   Start-Ups       LPS       LPS       LPS  10^6 ltr     Kw-hr    Low   High
  ---------------------------------------------------------------------------------------------------------
  CC-Pump-1               55.31           6      0.00    157.42    200.00     2.460      8.57    0.0   16.7
  CC-Pump-2               56.13           7      0.00    142.43    200.00     2.236      7.73    0.0    9.1
  JK-Pump-1               85.10           6      0.00    128.49    300.00     2.397     41.92    0.0    0.0
  JK-Pump-2               80.84           8      0.00    122.26    300.00     2.271     40.28    0.0    0.0
  XR-Pump-1               93.60           7      0.00     70.44     95.00     1.881     25.14    0.0    0.0
  XR-Pump-2               91.48           7      0.00     73.11     95.00     1.824     24.52    0.0    0.0
  XR-Pump-3               85.09           9      0.00     70.95     95.00     1.681     22.86    0.0    0.0
  XR-Pump-4               80.82           9      0.00     70.77     95.00     1.710     24.17    0.0    0.0
  

  Analysis begun on:  Tue Dec 21 15:20:16 2021
  Analysis ended on:  Tue Dec 21 15:20:19 2021
  Total elapsed time: 00:00:03