
  EPA STORM WATER MANAGEMENT MODEL - VERSION 5.1 (Build 5.3.0.dev0)
  --------------------------------------------------------------

  WARNING 04: minimum elevation drop used for Conduit WS02004404WS02004405
  WARNING 03: negative offset ignored for Link YS02001904YS02001907
  
  *********************************************************
  NOTE: The summary statistics displayed in this report are
  based on results found at every computational time step,  
  not just on results from each reporting time step.
  *********************************************************
  
  ****************
  Analysis Options
  ****************
  Flow Units ............... LPS
  Process Models:
    Rainfall/Runoff ........ YES
    RDII ................... NO
    Snowmelt ............... NO
    Groundwater ............ NO
    Flow Routing ........... YES
    Ponding Allowed ........ NO
    Water Quality .......... NO
  Infiltration Method ...... HORTON
  Flow Routing Method ...... DYNWAVE
  Surcharge Method ......... EXTRAN
  Starting Date ............ 08/28/2015 08:00:00
  Ending Date .............. 08/28/2015 15:50:00
  Antecedent Dry Days ...... 8.0
  Report Time Step ......... 00:01:00
  Wet Time Step ............ 00:01:00
  Dry Time Step ............ 00:01:00
  Routing Time Step ........ 5.00 sec
  Variable Time Step ....... YES
  Maximum Trials ........... 8
  Number of Threads ........ 4
  Head Tolerance ........... 0.001500 m
  
  
  **************************        Volume         Depth
  Runoff Quantity Continuity     hectare-m            mm
  **************************     ---------       -------
  Total Precipitation ......         2.737         5.993
  Evaporation Loss .........         0.000         0.000
  Infiltration Loss ........         0.688         1.506
  Surface Runoff ...........         1.163         2.547
  Final Storage ............         0.887         1.941
  Continuity Error (%) .....        -0.018
  
  
  **************************        Volume        Volume
  Flow Routing Continuity        hectare-m      10^6 ltr
  **************************     ---------     ---------
  Dry Weather Inflow .......         0.616         6.165
  Wet Weather Inflow .......         1.163        11.625
  Groundwater Inflow .......         0.000         0.000
  RDII Inflow ..............         0.000         0.000
  External Inflow ..........         0.102         1.024
  External Outflow .........         1.631        16.314
  Flooding Loss ............         0.048         0.483
  Evaporation Loss .........         0.000         0.000
  Exfiltration Loss ........         0.000         0.000
  Initial Stored Volume ....         0.076         0.761
  Final Stored Volume ......         0.395         3.947
  Continuity Error (%) .....        -5.973
  
  
  *************************
  Highest Continuity Errors
  *************************
  Node JK-storage (-32.52%)
  Node HS02004842 (28.25%)
  Node YS02001884 (22.35%)
  Node YS02001774 (13.46%)
  Node YSB1171 (6.84%)
  
  
  ***************************
  Time-Step Critical Elements
  ***************************
  Link WS02006252WS02006251 (53.38%)
  Link 3 (37.94%)
  Link WS02006238WS02006235 (2.57%)
  Link WS02006280WS02006229 (2.32%)
  
  
  ********************************
  Highest Flow Instability Indexes
  ********************************
  Link WS02006113WS02006111 (44)
  Link WS02006111WS02006112 (21)
  Link YS02006558YS02006561 (15)
  Link YS02001629YS02163301 (6)
  Link YS02001644YS02001647 (6)
  
  
  *************************
  Routing Time Step Summary
  *************************
  Minimum Time Step           :     0.15 sec
  Average Time Step           :     0.89 sec
  Maximum Time Step           :     5.00 sec
  Percent in Steady State     :    -0.00
  Average Iterations per Step :     2.48
  Percent Not Converging      :     5.70
  
  
  ***************************
  Subcatchment Runoff Summary
  ***************************
  
  ------------------------------------------------------------------------------------------------------------------------------
                            Total      Total      Total      Total     Imperv       Perv      Total       Total     Peak  Runoff
                           Precip      Runon       Evap      Infil     Runoff     Runoff     Runoff      Runoff   Runoff   Coeff
  Subcatchment                 mm         mm         mm         mm         mm         mm         mm    10^6 ltr      LPS
  ------------------------------------------------------------------------------------------------------------------------------
  sub0                       5.99       0.00       0.00       0.42       4.31       0.00       4.31        0.00     1.60   0.719
  sub1                       5.99       0.00       0.00       0.66       4.08       0.00       4.08        0.03     8.14   0.681
  sub2                       5.99       0.00       0.00       2.22       2.87       0.00       2.87        0.03     7.15   0.479
  sub3                       5.99       0.00       0.00       2.22       2.84       0.00       2.84        0.06    14.58   0.473
  sub4                       5.99       0.00       0.00       0.66       3.94       0.00       3.94        0.08    16.23   0.658
  sub5                       5.99       0.00       0.00       0.42       4.26       0.00       4.26        0.05    14.47   0.711
  sub7                       5.99       0.00       0.00       0.54       4.20       0.00       4.20        0.01     5.17   0.701
  sub8                       5.99       0.00       0.00       0.54       4.19       0.00       4.19        0.03     9.08   0.699
  sub9                       5.99       0.00       0.00       0.54       4.19       0.00       4.19        0.02     6.72   0.699
  sub10                      5.99       0.00       0.00       0.48       4.22       0.00       4.22        0.05    14.48   0.705
  sub11                      5.99       0.00       0.00       0.48       4.24       0.00       4.24        0.05    17.11   0.707
  sub12                      5.99       0.00       0.00       0.78       4.03       0.00       4.03        0.04    14.66   0.672
  sub14                      5.99       0.00       0.00       0.54       4.19       0.00       4.19        0.04    13.13   0.699
  sub15                      5.99       0.00       0.00       1.80       3.22       0.00       3.22        0.06    17.78   0.537
  sub16                      5.99       0.00       0.00       1.98       3.10       0.00       3.10        0.03    12.85   0.517
  sub17                      5.99       0.00       0.00       1.92       3.14       0.00       3.14        0.03    10.35   0.524
  sub22                      5.99       0.00       0.00       2.58       2.63       0.00       2.63        0.17    58.61   0.438
  sub23                      5.99       0.00       0.00       2.22       2.91       0.00       2.91        0.14    49.95   0.485
  sub60                      5.99       0.00       0.00       0.72       2.84       0.00       2.84        0.86    79.26   0.473
  sub61                      5.99       0.00       0.00       1.02       3.03       0.00       3.03        0.94   100.33   0.506
  sub62                      5.99       0.00       0.00       0.48       3.25       0.00       3.25        1.00   102.25   0.543
  sub63                      5.99       0.00       0.00       1.74       2.70       0.00       2.70        0.82    94.01   0.451
  sub64                      5.99       0.00       0.00       0.90       2.71       0.00       2.71        0.82    75.25   0.453
  sub65                      5.99       0.00       0.00       0.78       2.75       0.00       2.75        0.84    76.32   0.458
  sub66                      5.99       0.00       0.00       1.74       2.37       0.00       2.37        0.73    69.14   0.395
  sub67                      5.99       0.00       0.00       0.48       3.57       0.00       3.57        1.10   132.46   0.596
  sub68                      5.99       0.00       0.00       0.84       3.23       0.00       3.23        0.99   111.20   0.538
  sub69                      5.99       0.00       0.00       0.90       3.48       0.00       3.48        0.81   111.68   0.581
  sub70                      5.99       3.55       0.00       3.25       4.28       0.00       4.28        0.98    88.41   0.448
  sub71                      5.99       0.00       0.00       0.48       3.11       0.00       3.11        0.73    71.14   0.519
  sub72                      5.99       0.00       0.00       0.42       2.20       0.00       2.20        0.45    33.50   0.367
  sub73                      5.99       4.16       0.00       3.45       4.36       0.00       4.36        1.02    75.96   0.429
  sub74                      5.99       0.00       0.00       4.49       1.05       0.00       1.05        0.42    62.58   0.175
  
  
  ******************
  Node Depth Summary
  ******************
  
  ---------------------------------------------------------------------------------
                                 Average  Maximum  Maximum  Time of Max    Reported
                                   Depth    Depth      HGL   Occurrence   Max Depth
  Node                 Type       Meters   Meters   Meters  days hr:min      Meters
  ---------------------------------------------------------------------------------
  WS02001211           JUNCTION     0.64     0.77     5.61     0  07:50        0.77
  WS02001212           JUNCTION     0.37     0.48     5.54     0  06:41        0.48
  WS02001213           JUNCTION     0.60     0.72     5.48     0  06:41        0.72
  WS02003069           JUNCTION     0.42     0.51     5.10     0  06:43        0.51
  WS02003072           JUNCTION     0.49     0.58     4.95     0  06:43        0.58
  WS02003073           JUNCTION     0.29     0.35     4.41     0  06:44        0.35
  WS02003060           JUNCTION     0.38     0.45     5.39     0  06:42        0.45
  WS02003066           JUNCTION     0.23     0.28     5.84     0  03:10        0.28
  WS02003059           JUNCTION     0.66     0.76     5.45     0  06:42        0.76
  WS02003067           JUNCTION     0.56     0.67     5.99     0  03:09        0.67
  WS02004401           JUNCTION     0.65     0.80     6.80     0  03:06        0.80
  WS02004402           JUNCTION     0.69     0.83     6.79     0  03:06        0.83
  WS02004403           JUNCTION     0.71     0.84     6.77     0  03:06        0.84
  WS02004404           JUNCTION     0.78     0.92     6.77     0  03:06        0.92
  WS02004406           JUNCTION     0.79     0.92     6.75     0  03:06        0.92
  WS02004409           JUNCTION     0.47     0.62     6.39     0  03:08        0.62
  WS02004410           JUNCTION     0.49     0.63     6.35     0  03:08        0.63
  WS02004411           JUNCTION     0.51     0.65     6.33     0  03:09        0.65
  WS02004412           JUNCTION     0.53     0.66     6.30     0  03:09        0.66
  WS02004413           JUNCTION     0.69     0.82     6.29     0  03:09        0.82
  WS02004405           JUNCTION     0.78     0.91     6.76     0  03:06        0.91
  WS02006109           JUNCTION     0.73     0.90     7.52     0  03:02        0.90
  WS02006110           JUNCTION     0.73     0.87     7.46     0  03:03        0.87
  WS02006111           JUNCTION     0.21     0.27     6.98     0  03:03        0.27
  WS02006112           JUNCTION     0.82     0.98     6.87     0  03:06        0.98
  WS02006113           JUNCTION     0.33     0.42     7.32     0  03:03        0.42
  WS02006115           JUNCTION     0.54     0.69     6.83     0  03:06        0.69
  WS02006116           JUNCTION     0.63     0.78     6.82     0  03:06        0.78
  WS02006230           JUNCTION     0.69     0.93     7.68     0  03:02        0.93
  WS02006231           JUNCTION     0.46     0.63     7.75     0  03:02        0.63
  WS02006232           JUNCTION     0.60     0.77     7.81     0  03:02        0.77
  WS02006234           JUNCTION     0.51     0.72     7.87     0  03:02        0.72
  WS02006235           JUNCTION     0.55     0.76     7.92     0  03:02        0.75
  WS02006238           JUNCTION     0.57     0.78     7.93     0  03:02        0.78
  WS02006240           JUNCTION     0.47     0.71     8.00     0  03:01        0.71
  WS02006242           JUNCTION     0.52     0.78     8.05     0  03:01        0.78
  WS02006243           JUNCTION     0.40     0.67     8.09     0  03:01        0.67
  WS02006245           JUNCTION     0.38     0.64     8.13     0  03:01        0.64
  WS02006247           JUNCTION     0.40     0.65     8.15     0  03:01        0.65
  WS02006248           JUNCTION     0.35     0.58     8.17     0  03:01        0.58
  WS02006249           JUNCTION     0.38     0.60     8.20     0  03:01        0.60
  WS02006239           JUNCTION     0.53     0.76     7.97     0  03:01        0.76
  WS02006251           JUNCTION     0.37     0.62     8.29     0  03:00        0.62
  WS02006252           JUNCTION     0.34     0.59     8.83     0  06:10        0.58
  WS02006253           JUNCTION     0.40     0.65     8.29     0  03:00        0.64
  WS02006256           JUNCTION     1.01     1.21     8.14     0  03:10        1.21
  WS02004138           JUNCTION     0.14     0.19     7.44     0  00:30        0.19
  WS02004407           JUNCTION     0.21     0.28     6.59     0  03:06        0.28
  WS02006228           JUNCTION     0.72     0.92     7.57     0  03:02        0.92
  WS02006229           JUNCTION     0.70     0.91     7.60     0  03:02        0.91
  WS02006280           JUNCTION     0.05     0.15     8.42     0  02:17        0.15
  WS02006284           JUNCTION     0.34     0.49     8.89     0  02:17        0.49
  WS02006287           JUNCTION     0.08     0.22     9.18     0  02:16        0.22
  WSF200               JUNCTION     0.21     0.28     5.52     0  03:10        0.28
  HS02004901           JUNCTION     0.11     0.24    10.06     0  02:14        0.24
  HS02004881           JUNCTION     0.01     0.03     9.05     0  02:16        0.03
  HS02004876           JUNCTION     0.03     0.10     9.13     0  02:14        0.10
  HS02004870           JUNCTION     0.01     0.04     9.33     0  02:17        0.04
  HS02004862           JUNCTION     0.01     0.05     9.43     0  02:17        0.05
  HS02004856           JUNCTION     0.07     0.11     9.53     0  02:17        0.11
  HS02004852           JUNCTION     0.01     0.03     9.54     0  02:18        0.03
  HS02004848           JUNCTION     0.01     0.03     9.63     0  02:16        0.03
  HS02004842           JUNCTION     0.33     0.36     9.63     0  02:16        0.36
  HS02004837           JUNCTION     0.03     0.05     9.63     0  02:16        0.05
  HS02004830           JUNCTION     0.04     0.06     9.53     0  02:16        0.06
  HS02004824           JUNCTION     0.02     0.04     9.44     0  02:19        0.04
  HS02004817           JUNCTION     0.42     0.53     9.38     0  02:17        0.53
  HS02004807           JUNCTION     0.11     0.21     9.38     0  02:17        0.21
  HS02004802           JUNCTION     0.15     0.24     9.37     0  02:17        0.24
  HS02004799           JUNCTION     0.10     0.27     9.48     0  02:15        0.27
  HS02004792           JUNCTION     0.02     0.10     9.63     0  02:14        0.10
  HS02004788           JUNCTION     0.02     0.08     9.98     0  02:15        0.08
  HS02004785           JUNCTION     0.03     0.14    10.04     0  02:15        0.14
  HS02004777           JUNCTION     0.13     0.26    10.06     0  02:15        0.26
  HS02004770           JUNCTION     0.10     0.23    10.06     0  02:14        0.23
  HS02004480           JUNCTION     0.06     0.21     9.45     0  02:16        0.21
  HS02004479           JUNCTION     0.10     0.25     9.45     0  02:15        0.25
  HS02004478           JUNCTION     0.05     0.13     9.36     0  02:16        0.13
  YS02001745           JUNCTION     0.11     0.29     7.81     0  05:50        0.28
  YS02001748           JUNCTION     0.45     0.71     7.78     0  05:49        0.69
  YS02001751           JUNCTION     0.63     0.93     7.81     0  05:50        0.90
  YS02001754           JUNCTION     0.88     1.20     7.81     0  05:56        1.17
  YS02001762           JUNCTION     1.08     1.50     7.90     0  05:58        1.41
  YS02001765           JUNCTION     1.03     1.49     7.94     0  05:24        1.38
  YS02001767           JUNCTION     1.00     1.50     7.99     0  05:24        1.37
  YS02001770           JUNCTION     0.99     1.57     8.06     0  05:24        1.38
  YS02001774           JUNCTION     1.06     1.66     8.09     0  05:24        1.47
  YS02001779           JUNCTION     0.81     1.43     8.11     0  05:12        1.21
  YS02001882           JUNCTION     0.29     0.47     7.18     0  02:48        0.47
  YS02001884           JUNCTION     0.38     0.57     7.18     0  02:49        0.57
  YS02001759           JUNCTION     1.11     1.49     7.85     0  05:58        1.43
  YS02001887           JUNCTION     0.46     0.65     7.18     0  02:49        0.65
  YS02001890           JUNCTION     0.49     0.68     7.18     0  02:48        0.68
  YS02001898           JUNCTION     0.26     0.43     7.17     0  02:49        0.43
  YS02001901           JUNCTION     0.38     0.56     7.17     0  02:49        0.56
  YS02001904           JUNCTION     0.36     0.53     7.16     0  02:49        0.53
  YS02001907           JUNCTION     0.68     0.88     7.16     0  02:50        0.88
  YS02001910           JUNCTION     0.47     0.66     7.16     0  02:50        0.66
  YS02001915           JUNCTION     0.27     0.45     7.16     0  02:49        0.45
  YS02001918           JUNCTION     0.08     0.10     7.16     0  03:03        0.10
  YS02001619           JUNCTION     0.59     0.84     7.77     0  05:48        0.84
  YS02001629           JUNCTION     0.94     1.24     7.79     0  05:48        1.24
  YS02001641           JUNCTION     1.05     1.37     7.81     0  05:49        1.35
  YS02001644           JUNCTION     1.05     1.37     7.80     0  05:49        1.34
  YS02001652           JUNCTION     0.90     1.19     7.79     0  05:58        1.18
  YS02001655           JUNCTION     0.66     0.95     7.80     0  06:01        0.94
  YS02001920           JUNCTION     0.17     0.21     7.22     0  03:02        0.21
  YS02001923           JUNCTION     0.06     0.09     7.35     0  03:01        0.09
  YS02001926           JUNCTION     0.14     0.18     7.62     0  03:01        0.18
  YS02001929           JUNCTION     0.07     0.09     7.78     0  03:01        0.09
  YS02001658           JUNCTION     0.39     0.64     7.78     0  05:53        0.63
  YS02001661           JUNCTION     0.19     0.38     7.79     0  05:54        0.37
  YS02001664           JUNCTION     0.07     0.12     8.04     0  02:41        0.12
  YS02001622           JUNCTION     0.61     0.86     7.77     0  05:48        0.86
  YS02001633           JUNCTION     1.03     1.35     7.80     0  05:44        1.33
  YS02001649           JUNCTION     1.09     1.40     7.79     0  05:49        1.38
  YS02001757           JUNCTION     1.21     1.54     7.81     0  05:49        1.51
  YS02001895           JUNCTION     0.25     0.43     7.17     0  02:48        0.43
  YS02001625           JUNCTION     0.89     1.17     7.77     0  05:49        1.16
  YS02163301           JUNCTION     0.97     1.28     7.79     0  05:45        1.27
  YS02163601           JUNCTION     1.08     1.40     7.80     0  05:49        1.39
  YS02164001           JUNCTION     1.03     1.34     7.80     0  05:49        1.32
  YS02001647           JUNCTION     0.88     1.19     7.80     0  05:49        1.17
  YSB1154              JUNCTION     0.23     0.39     9.45     0  02:16        0.39
  YSB6556              JUNCTION     0.13     0.28     9.45     0  02:15        0.28
  YSB1174              JUNCTION     0.19     0.34     9.45     0  02:16        0.34
  YSB1171              JUNCTION     0.38     0.55     9.45     0  02:15        0.55
  YS02006553           JUNCTION     0.69     0.88     7.16     0  02:51        0.88
  YS02006561           JUNCTION     0.14     0.23     6.89     0  02:48        0.23
  YS02006556           JUNCTION     0.66     0.85     7.16     0  02:51        0.85
  YS02006558           JUNCTION     0.70     0.89     7.16     0  02:51        0.89
  YS02001783           JUNCTION     0.25     0.64     6.79     0  02:49        0.64
  YS02001784           JUNCTION     0.29     0.71     6.78     0  02:50        0.68
  YS02001786           JUNCTION     0.25     0.70     6.73     0  02:50        0.69
  YS02001788           JUNCTION     0.19     0.73     6.71     0  02:50        0.72
  YS02001790           JUNCTION     0.25     1.65     7.29     0  02:47        1.02
  YS02001791           JUNCTION     0.21     1.65     7.12     0  02:46        1.16
  YS02001793           JUNCTION     0.24     1.85     6.68     0  02:46        1.78
  WS02004139           JUNCTION     0.58     0.72     5.63     0  07:50        0.72
  WSC                  OUTFALL      0.29     0.35     1.02     0  06:44        0.35
  3                    OUTFALL      0.08     0.20     6.20     0  03:10        0.20
  4                    OUTFALL      0.02     0.10     7.10     0  03:01        0.10
  5                    OUTFALL      0.00     0.00     5.00     0  00:00        0.00
  JK-storage           STORAGE      1.04     5.80     6.60     0  02:48        5.80
  CC-storage           STORAGE      0.46     0.74     7.74     0  05:48        0.74
  XR-storage           STORAGE      6.03     7.72     5.72     0  04:26        7.72
  
  
  *******************
  Node Inflow Summary
  *******************
  
  -------------------------------------------------------------------------------------------------
                                  Maximum  Maximum                  Lateral       Total        Flow
                                  Lateral    Total  Time of Max      Inflow      Inflow     Balance
                                   Inflow   Inflow   Occurrence      Volume      Volume       Error
  Node                 Type           LPS      LPS  days hr:min    10^6 ltr    10^6 ltr     Percent
  -------------------------------------------------------------------------------------------------
  WS02001211           JUNCTION      7.35   387.67     0  00:49       0.207        6.75       0.657
  WS02001212           JUNCTION      0.00   387.67     0  00:50           0        6.71       0.368
  WS02001213           JUNCTION      0.00   387.67     0  00:50           0        6.68       0.381
  WS02003069           JUNCTION      0.32   752.76     0  06:42     0.00902        13.6       0.247
  WS02003072           JUNCTION      0.00   752.41     0  06:43           0        13.6       0.294
  WS02003073           JUNCTION      1.82   753.95     0  06:43      0.0514        13.6       0.339
  WS02003060           JUNCTION     16.53   752.60     0  06:42       0.466        13.7       0.233
  WS02003066           JUNCTION      0.00   468.50     0  03:09           0         6.6       0.065
  WS02003059           JUNCTION      0.00   387.69     0  00:44           0        6.66       0.672
  WS02003067           JUNCTION      0.00   468.47     0  03:09           0        6.61       0.139
  WS02004401           JUNCTION      0.00   472.12     0  03:04           0        6.83       0.307
  WS02004402           JUNCTION      0.00   471.31     0  03:05           0        6.81       0.290
  WS02004403           JUNCTION      0.00   470.89     0  03:05           0        6.79       0.265
  WS02004404           JUNCTION      0.16   470.93     0  03:06     0.00457        6.78       0.201
  WS02004406           JUNCTION      0.00   470.87     0  03:06           0        6.75       0.489
  WS02004409           JUNCTION      0.00   470.82     0  03:06           0        6.71       0.234
  WS02004410           JUNCTION      0.00   469.91     0  03:08           0        6.69       0.266
  WS02004411           JUNCTION      0.00   469.28     0  03:08           0        6.67       0.274
  WS02004412           JUNCTION      0.00   468.87     0  03:08           0        6.66       0.297
  WS02004413           JUNCTION      0.00   468.62     0  03:09           0        6.64       0.442
  WS02004405           JUNCTION      0.04   470.91     0  03:06     0.00107        6.77       0.299
  WS02006109           JUNCTION      1.23   474.19     0  03:02      0.0347        6.93       0.298
  WS02006110           JUNCTION      0.00   474.20     0  03:02           0        6.91       0.278
  WS02006111           JUNCTION      0.00   489.14     0  03:03           0        6.88       0.060
  WS02006112           JUNCTION     10.35   478.21     0  03:03      0.0269         6.9       0.413
  WS02006113           JUNCTION      0.00   474.28     0  03:03           0        6.89       0.135
  WS02006115           JUNCTION      0.00   475.24     0  03:03           0        6.87       0.283
  WS02006116           JUNCTION      0.00   473.30     0  03:04           0        6.85       0.269
  WS02006230           JUNCTION     10.28   393.76     0  06:17        0.29        6.01       0.234
  WS02006231           JUNCTION      0.00   383.91     0  06:13           0        5.73       0.161
  WS02006232           JUNCTION      0.00   384.02     0  06:13           0        5.74       0.272
  WS02006234           JUNCTION      0.00   384.97     0  06:12           0        5.75       0.131
  WS02006235           JUNCTION      0.00   385.34     0  06:12           0        5.79       0.177
  WS02006238           JUNCTION      0.00   311.32     0  06:21           0        3.86       0.189
  WS02006240           JUNCTION      0.00   318.73     0  07:10           0        3.85       0.289
  WS02006242           JUNCTION      0.00   324.00     0  07:11           0        3.85       0.360
  WS02006243           JUNCTION      0.00   323.13     0  07:11           0        3.84      -0.083
  WS02006245           JUNCTION      0.00   326.48     0  07:10           0        3.85       0.283
  WS02006247           JUNCTION      0.00   331.24     0  07:10           0        3.86       0.171
  WS02006248           JUNCTION      0.00   335.76     0  07:10           0        3.86       0.068
  WS02006249           JUNCTION      0.00   408.17     0  03:00           0        4.12       0.298
  WS02006239           JUNCTION      0.00   314.02     0  07:10           0        3.85       0.247
  WS02006251           JUNCTION      0.08   411.30     0  03:00     0.00217        4.15       0.206
  WS02006252           JUNCTION      0.00   400.00     0  04:00           0        3.98       0.010
  WS02006253           JUNCTION      1.60    45.29     0  02:16     0.00349       0.175       2.229
  WS02006256           JUNCTION      0.00   600.00     0  03:30           0        4.45       0.062
  WS02004138           JUNCTION      0.00   380.00     0  00:30           0        6.58       0.066
  WS02004407           JUNCTION      0.00   470.85     0  03:06           0        6.71       0.106
  WS02006228           JUNCTION      0.00   472.96     0  03:02           0         6.9       0.204
  WS02006229           JUNCTION      0.00   472.91     0  03:02           0        6.92       0.186
  WS02006280           JUNCTION      0.00   230.92     0  02:17           0       0.922       0.007
  WS02006284           JUNCTION      0.10   230.90     0  02:17      0.0027       0.923       0.114
  WS02006287           JUNCTION      0.00   230.75     0  02:16           0       0.921       0.079
  WSF200               JUNCTION      0.00   468.49     0  03:10           0        6.59       0.061
  HS02004901           JUNCTION     12.85    12.85     0  02:09      0.0324      0.0326       5.705
  HS02004881           JUNCTION      5.17    44.08     0  02:16      0.0141       0.149       0.185
  HS02004876           JUNCTION      8.14    39.26     0  02:16      0.0271       0.135       0.390
  HS02004870           JUNCTION      9.08    31.31     0  02:16      0.0268       0.108       0.098
  HS02004862           JUNCTION      7.35    22.88     0  02:17      0.0324      0.0818       0.207
  HS02004856           JUNCTION      6.72    15.60     0  02:16      0.0201      0.0509       2.911
  HS02004852           JUNCTION      0.00     9.33     0  02:16           0      0.0308       0.164
  HS02004848           JUNCTION     14.58    14.58     0  02:19      0.0638      0.0638       0.068
  HS02004842           JUNCTION      0.00     5.80     0  02:28           0       0.046      39.376
  HS02004837           JUNCTION     20.83    25.68     0  02:15       0.226       0.259       0.315
  HS02004830           JUNCTION      0.15    25.81     0  02:16     0.00423       0.249       0.498
  HS02004824           JUNCTION     16.28    41.90     0  02:19      0.0836       0.331       0.163
  HS02004817           JUNCTION      0.60    42.49     0  02:19      0.0169       0.348       5.033
  HS02004807           JUNCTION     17.11    57.99     0  02:18      0.0492        0.38       1.123
  HS02004802           JUNCTION      0.00    58.34     0  02:19           0       0.376       1.092
  HS02004799           JUNCTION     13.13   147.42     0  02:14      0.0398       0.481       0.473
  HS02004792           JUNCTION     58.89   134.62     0  02:14       0.174       0.441       0.093
  HS02004788           JUNCTION     19.45    78.36     0  02:15       0.102       0.269       0.146
  HS02004785           JUNCTION      0.15    59.36     0  02:14     0.00423       0.168       0.288
  HS02004777           JUNCTION      0.03    59.86     0  02:13    0.000846       0.168       3.169
  HS02004770           JUNCTION     49.95    61.25     0  02:11       0.139       0.169       1.862
  HS02004480           JUNCTION      0.00   173.71     0  02:16           0       0.561       0.131
  HS02004479           JUNCTION      0.00    26.95     0  02:17           0      0.0929       0.791
  HS02004478           JUNCTION      0.00   230.75     0  02:17           0       0.922       0.067
  YS02001745           JUNCTION     79.27   105.73     0  06:05        0.86       0.887       0.113
  YS02001748           JUNCTION      0.04   164.82     0  06:00     0.00127       0.976       0.764
  YS02001751           JUNCTION      0.01   179.60     0  06:05     0.00031       0.949       1.634
  YS02001754           JUNCTION      0.26   108.69     0  02:49     0.00733       0.861       2.264
  YS02001762           JUNCTION      0.00   113.92     0  02:36           0       0.949       2.258
  YS02001765           JUNCTION      0.00   121.20     0  02:36           0        0.95       2.578
  YS02001767           JUNCTION      0.54   128.78     0  02:43      0.0151       0.969       3.718
  YS02001770           JUNCTION    102.41   128.01     0  02:42           1        1.08       2.797
  YS02001774           JUNCTION      0.00    53.71     0  05:11           0       0.184      15.556
  YS02001779           JUNCTION      0.01    54.61     0  05:11    0.000141      0.0853      16.527
  YS02001882           JUNCTION      0.00     4.64     0  02:07           0     0.00556      43.662
  YS02001884           JUNCTION      0.00    13.25     0  02:07           0      0.0219      28.779
  YS02001759           JUNCTION    100.37   209.96     0  02:43       0.936        1.84       1.254
  YS02001887           JUNCTION    132.91   133.34     0  02:38        1.12        1.13       0.642
  YS02001890           JUNCTION      0.00   133.22     0  02:38           0         1.1       0.720
  YS02001898           JUNCTION      0.00   132.23     0  02:38           0        1.09       0.204
  YS02001901           JUNCTION      0.00   132.38     0  02:39           0        1.09       0.512
  YS02001904           JUNCTION      0.00   131.06     0  02:45           0        1.09       0.476
  YS02001907           JUNCTION      0.00   239.67     0  02:53           0        2.33       0.956
  YS02001910           JUNCTION      0.00   108.83     0  02:53           0        1.26       0.818
  YS02001915           JUNCTION     71.16   106.85     0  02:59       0.735        1.26       0.365
  YS02001918           JUNCTION      0.00    36.38     0  03:02           0       0.526       0.219
  YS02001619           JUNCTION     69.14    69.14     0  02:53       0.725       0.727       1.006
  YS02001629           JUNCTION      0.00    96.58     0  03:11           0       0.687       3.030
  YS02001641           JUNCTION      0.00   158.53     0  03:04           0        1.42       1.458
  YS02001644           JUNCTION     75.28   237.04     0  03:03       0.825        2.22       1.157
  YS02001652           JUNCTION      0.00   131.73     0  02:57           0       0.818       2.375
  YS02001655           JUNCTION      0.15   152.46     0  03:39     0.00434       0.881       1.974
  YS02001920           JUNCTION      2.87    36.39     0  03:01      0.0809       0.528       0.393
  YS02001923           JUNCTION      0.04    33.53     0  03:01     0.00106       0.448       0.069
  YS02001926           JUNCTION      0.05    33.54     0  03:01     0.00147       0.449       0.491
  YS02001929           JUNCTION     33.50    33.50     0  03:01       0.448       0.448       0.067
  YS02001658           JUNCTION      0.00   130.79     0  05:09           0       0.964       0.800
  YS02001661           JUNCTION      0.00   109.03     0  05:53           0       0.904       0.090
  YS02001664           JUNCTION     94.01    94.01     0  02:41       0.817       0.817       0.017
  YS02001622           JUNCTION      0.00    83.92     0  03:01           0       0.745       2.809
  YS02001633           JUNCTION     76.52   171.57     0  03:05        0.85        1.48       2.143
  YS02001649           JUNCTION      0.00   326.57     0  03:00           0        2.95       1.261
  YS02001757           JUNCTION      0.00   584.46     0  03:01           0        5.51       1.694
  YS02001895           JUNCTION      0.00   132.36     0  02:38           0        1.09       0.347
  YS02001625           JUNCTION      0.00    91.41     0  05:47           0       0.745       5.066
  YS02163301           JUNCTION      0.00   106.74     0  03:05           0       0.656       3.668
  YS02163601           JUNCTION      0.11   157.34     0  03:05      0.0031        1.44       2.093
  YS02164001           JUNCTION      0.00   151.28     0  03:05           0        1.42       1.334
  YS02001647           JUNCTION      0.00   240.95     0  03:03           0        2.18       1.127
  YSB1154              JUNCTION     14.47    14.47     0  02:13      0.0483      0.0497       2.994
  YSB6556              JUNCTION      0.00    14.37     0  02:15           0      0.0507       2.520
  YSB1174              JUNCTION     14.66    14.66     0  02:08      0.0352      0.0362       3.674
  YSB1171              JUNCTION      0.00    26.93     0  02:15           0      0.0924       7.341
  YS02006553           JUNCTION      0.00   239.38     0  02:53           0        2.32       0.620
  YS02006561           JUNCTION      0.00   355.53     0  02:51           0        3.29       0.019
  YS02006556           JUNCTION      0.00   238.83     0  02:53           0        2.33       0.447
  YS02006558           JUNCTION    112.08   349.56     0  02:52        1.02        3.32       0.138
  YS02001783           JUNCTION      0.00   352.71     0  02:48           0        3.29       0.047
  YS02001784           JUNCTION      1.06   401.04     0  02:50      0.0299        3.31       0.077
  YS02001786           JUNCTION      0.06   382.61     0  02:51     0.00159        3.31       0.076
  YS02001788           JUNCTION      0.07   412.54     0  02:51       0.002        3.31       0.045
  YS02001790           JUNCTION      0.15   436.43     0  03:07     0.00437        3.32       0.046
  YS02001791           JUNCTION      0.00   461.30     0  03:07           0        3.31       0.024
  YS02001793           JUNCTION      0.00   593.43     0  02:37           0        3.32       0.018
  WS02004139           JUNCTION      0.32   380.41     0  00:30     0.00905        6.59       0.641
  WSC                  OUTFALL       0.00   753.57     0  06:44           0        13.6       0.000
  3                    OUTFALL       0.00   501.33     0  03:10           0        2.49       0.000
  4                    OUTFALL       0.00    96.99     0  03:01           0       0.248       0.000
  5                    OUTFALL       0.00     0.00     0  00:00           0           0       0.000 ltr
  JK-storage           STORAGE       0.00   838.92     0  02:37           0        3.47     -24.540
  CC-storage           STORAGE       0.00   585.34     0  03:01           0        5.41       0.567
  XR-storage           STORAGE     329.03   329.03     0  02:48        7.08        7.68      -0.001
  
  
  **********************
  Node Surcharge Summary
  **********************
  
  Surcharging occurs when water rises above the top of the highest conduit.
  ---------------------------------------------------------------------
                                               Max. Height   Min. Depth
                                   Hours       Above Crown    Below Rim
  Node                 Type      Surcharged         Meters       Meters
  ---------------------------------------------------------------------
  WS02006109           JUNCTION        1.42          0.079        1.741
  WS02006232           JUNCTION        1.42          0.068        1.412
  WS02006235           JUNCTION        0.81          0.045        1.245
  WS02006238           JUNCTION        1.12          0.063        1.367
  WS02006240           JUNCTION        0.02          0.001        1.389
  WS02006242           JUNCTION        0.76          0.052        0.768
  WS02006239           JUNCTION        0.16          0.018        1.272
  WS02006252           JUNCTION        1.54          0.186        0.914
  WS02006228           JUNCTION        1.33          0.091        2.109
  YS02001754           JUNCTION        1.08          0.150        1.000
  YS02001762           JUNCTION        5.20          0.498        0.652
  YS02001765           JUNCTION        5.11          0.486        0.614
  YS02001767           JUNCTION        4.68          0.502        0.528
  YS02001770           JUNCTION        3.96          0.536        0.384
  YS02001774           JUNCTION        5.18          0.664        0.386
  YS02001779           JUNCTION        0.79          0.426        0.254
  YS02001759           JUNCTION        5.26          0.490        0.720
  YS02001641           JUNCTION        5.16          0.369        0.731
  YS02001644           JUNCTION        5.17          0.368        0.552
  YS02001652           JUNCTION        1.59          0.164        0.966
  YS02001633           JUNCTION        5.07          0.327        0.733
  YS02001649           JUNCTION        5.22          0.405        0.645
  YS02001757           JUNCTION        5.38          0.544        0.666
  YS02001625           JUNCTION        2.03          0.169        0.611
  YS02163301           JUNCTION        4.15          0.278        0.752
  YS02163601           JUNCTION        5.22          0.399        0.681
  YS02164001           JUNCTION        5.11          0.341        0.759
  YS02001647           JUNCTION        1.92          0.190        0.710
  YS02001790           JUNCTION        0.32          0.848        0.309
  YS02001791           JUNCTION        0.37          0.850        1.070
  YS02001793           JUNCTION        0.48          0.849        1.751
  
  
  *********************
  Node Flooding Summary
  *********************
  
  Flooding refers to all water that overflows a node, whether it ponds or not.
  --------------------------------------------------------------------------
                                                             Total   Maximum
                                 Maximum   Time of Max       Flood    Ponded
                        Hours       Rate    Occurrence      Volume     Depth
  Node                 Flooded       LPS   days hr:min    10^6 ltr    Meters
  --------------------------------------------------------------------------
  JK-storage              0.21    364.94      0  02:50       0.141     0.000
  XR-storage              0.74    260.21      0  05:00       0.342     0.000
  
  
  **********************
  Storage Volume Summary
  **********************
  
  --------------------------------------------------------------------------------------------------
                         Average     Avg  Evap Exfil       Maximum     Max    Time of Max    Maximum
                          Volume    Pcnt  Pcnt  Pcnt        Volume    Pcnt     Occurrence    Outflow
  Storage Unit           1000 m3    Full  Loss  Loss       1000 m3    Full    days hr:min        LPS
  --------------------------------------------------------------------------------------------------
  JK-storage               0.052      18     0     0         0.291     100       0  02:48     600.00
  CC-storage               1.295       8     0     0         2.059      13       0  05:48     400.00
  XR-storage               0.724      78     0     0         0.926     100       0  04:26     380.00
  
  
  ***********************
  Outfall Loading Summary
  ***********************
  
  -----------------------------------------------------------
                         Flow       Avg       Max       Total
                         Freq      Flow      Flow      Volume
  Outfall Node           Pcnt       LPS       LPS    10^6 ltr
  -----------------------------------------------------------
  WSC                   99.99    547.06    753.57      13.578
  3                     80.16    155.91    501.33       2.488
  4                     26.14     43.99     96.99       0.248
  5                      0.00      0.00      0.00       0.000
  -----------------------------------------------------------
  System                51.57    746.97   1212.09      16.314
  
  
  ********************
  Link Flow Summary
  ********************
  
  -----------------------------------------------------------------------------
                                 Maximum  Time of Max   Maximum    Max/    Max/
                                  |Flow|   Occurrence   |Veloc|    Full    Full
  Link                 Type          LPS  days hr:min     m/sec    Flow   Depth
  -----------------------------------------------------------------------------
  WS02003066WSF200     CONDUIT    468.49     0  03:10      2.65    0.08    0.21
  WS02006287WS02006284 CONDUIT    230.80     0  02:17      1.68    0.11    0.23
  WS02006284WS02006280 CONDUIT    230.92     0  02:17      1.93    0.10    0.21
  WS02006280WS02006229 CONDUIT    230.92     0  02:17      3.10    0.05    0.15
  WS02006229WS02006228 CONDUIT    472.96     0  03:02      0.94    1.57    1.00
  WS02006256WS02006235 CONDUIT    166.25     0  00:01      2.58    1.76    1.00
  WS02006253WS02006251 CONDUIT     49.22     0  02:22      0.51    0.15    0.90
  WS02006252WS02006251 CONDUIT    400.27     0  06:10      3.19    1.47    1.00
  WS02006251WS02006249 CONDUIT    408.17     0  03:00      1.16    1.18    0.87
  WS02006249WS02006248 CONDUIT    335.76     0  07:10      1.09    1.84    0.83
  WS02006248WS02006247 CONDUIT    331.24     0  07:10      1.05    0.72    0.87
  WS02006247WS02006245 CONDUIT    326.48     0  07:10      1.00    2.59    0.91
  WS02006245WS02006243 CONDUIT    323.13     0  07:11      1.10    0.96    0.93
  WS02006243WS02006242 CONDUIT    324.00     0  07:11      0.96    0.69    0.98
  WS02006242WS02006240 CONDUIT    318.73     0  07:10      0.85    1.27    1.00
  WS02006240WS02006239 CONDUIT    314.02     0  07:10      0.91    0.99    1.00
  WS02006239WS02006238 CONDUIT    311.32     0  06:21      0.81    1.00    1.00
  WS02006238WS02006235 CONDUIT    311.32     0  06:21      1.25    0.69    1.00
  WS02006235WS02006234 CONDUIT    384.97     0  06:12      1.02    4.06    1.00
  WS02006234WS02006232 CONDUIT    384.02     0  06:13      1.13    0.78    1.00
  WS02006232WS02006231 CONDUIT    383.91     0  06:13      1.05    0.80    0.94
  WS02006231WS02006230 CONDUIT    383.48     0  06:17      1.33    5.82    0.84
  WS02006230WS02006229 CONDUIT    393.77     0  06:19      1.02    8.76    1.00
  WS02006228WS02006109 CONDUIT    472.96     0  03:02      0.94    2.07    1.00
  WS02006116WS02004401 CONDUIT    472.12     0  03:04      0.73    0.65    0.79
  WS02006115WS02006116 CONDUIT    473.30     0  03:04      0.80    0.61    0.70
  WS02006113WS02006111 CONDUIT    489.14     0  03:03      2.35    0.59    0.43
  WS02006112WS02006115 CONDUIT    475.24     0  03:03      0.68    0.28    0.83
  WS02006111WS02006112 CONDUIT    476.14     0  03:03      1.35    0.23    0.66
  WS02006110WS02006113 CONDUIT    474.28     0  03:03      1.15    0.43    0.76
  WS02006109WS02006110 CONDUIT    474.20     0  03:02      0.95    0.91    0.98
  WS02004411WS02004412 CONDUIT    468.87     0  03:08      0.87    0.67    0.65
  WS02004401WS02004402 CONDUIT    471.31     0  03:05      0.77    0.57    0.81
  WS02004413WS02003067 CONDUIT    468.47     0  03:09      1.03    0.20    0.56
  WS02004412WS02004413 CONDUIT    468.62     0  03:09      0.75    0.31    0.74
  WS02004410WS02004411 CONDUIT    469.28     0  03:08      0.89    0.64    0.64
  WS02004409WS02004410 CONDUIT    469.91     0  03:08      0.91    0.61    0.63
  WS02004407WS02004409 CONDUIT    470.82     0  03:06      1.39    0.17    0.45
  WS02004406WS02004407 CONDUIT    470.85     0  03:06      0.96    0.21    0.60
  WS02004405WS02004406 CONDUIT    470.87     0  03:06      0.66    0.93    0.92
  WS02004404WS02004405 CONDUIT    470.88     0  03:06      0.84    4.61    0.92
  WS02004403WS02004404 CONDUIT    470.77     0  03:06      0.74    0.34    0.88
  WS02004402WS02004403 CONDUIT    470.89     0  03:05      0.75    0.68    0.84
  WS02004139WS02001211 CONDUIT    380.32     0  00:49      0.58    0.48    0.58
  WS02004138WS02004139 CONDUIT    380.09     0  00:30      2.39    0.08    0.43
  WS02003067WS02003066 CONDUIT    468.50     0  03:09      1.12    0.15    0.40
  WS02001213WS02003059 CONDUIT    387.69     0  00:44      0.68    0.64    0.73
  WS02001212WS02001213 CONDUIT    387.67     0  00:50      1.32    0.60    0.44
  WS02001211WS02001212 CONDUIT    387.67     0  00:50      0.78    0.30    0.62
  WS02003072WS02003073 CONDUIT    752.13     0  06:43      1.60    1.62    0.43
  WS02003069WS02003072 CONDUIT    752.41     0  06:43      1.51    0.36    0.45
  WS02003060WS02003069 CONDUIT    752.44     0  06:42      1.77    0.29    0.40
  WS02003059WS02003060 CONDUIT    387.68     0  00:48      0.95    0.25    0.61
  HS02004901HS02004770 CONDUIT     11.75     0  02:14      0.05    0.04    0.33
  HS02004876HS02004881 CONDUIT     39.37     0  02:16      0.61    0.42    0.09
  HS02004870HS02004876 CONDUIT     31.29     0  02:17      0.43    0.02    0.10
  HS02004842HS02004848 CONDUIT      5.80     0  02:28      0.03    0.00    0.28
  HS02004837HS02004842 CONDUIT      6.02     0  02:29      0.41    0.00    0.29
  HS02004830HS02004837 CONDUIT     25.66     0  02:16      0.46    0.03    0.08
  HS02004824HS02004830 CONDUIT     25.81     0  02:17      0.50    0.03    0.07
  HS02004817HS02004824 CONDUIT     41.89     0  02:19      0.17    0.02    0.41
  HS02004770HS02004777 CONDUIT     59.83     0  02:13      0.25    0.11    0.35
  HS02004799HS02004480 CONDUIT    147.17     0  02:15      0.63    0.19    0.33
  HS02004792HS02004799 CONDUIT    134.54     0  02:14      0.73    0.08    0.27
  HS02004788HS02004792 CONDUIT     78.28     0  02:15      0.87    0.05    0.13
  HS02004785HS02004788 CONDUIT     59.27     0  02:15      0.55    0.45    0.16
  HS02004777HS02004785 CONDUIT     59.21     0  02:14      0.30    0.07    0.28
  HS02004480HS02004478 CONDUIT    173.65     0  02:16      1.01    0.73    0.25
  HS02004479HS02004480 CONDUIT     27.20     0  02:17      0.15    0.03    0.32
  HS02004862HS02004870 CONDUIT     22.84     0  02:17      0.49    0.02    0.07
  HS02004848HS02004852 CONDUIT      9.33     0  02:16      0.33    0.01    0.04
  HS02004856HS02004862 CONDUIT     15.56     0  02:17      0.36    0.02    0.06
  HS02004852HS02004856 CONDUIT      9.28     0  02:18      0.14    0.01    0.10
  HS02004802HS02004478 CONDUIT     58.82     0  02:20      0.32    0.05    0.27
  HS02004478WS02006287 CONDUIT    230.75     0  02:16      1.38    0.06    0.19
  HS02004817HS02004807 CONDUIT     43.15     0  02:21      0.12    0.03    0.53
  HS02004807HS02004802 CONDUIT     58.34     0  02:19      0.27    0.11    0.32
  YS02001759YS02001757 CONDUIT    212.90     0  02:36      0.27    0.15    1.00
  YS02001762YS02001759 CONDUIT    110.76     0  02:36      0.17    0.13    1.00
  YS02001765YS02001762 CONDUIT    113.92     0  02:36      0.23    0.11    1.00
  YS02001770YS02001767 CONDUIT    128.24     0  02:43      0.35    0.51    1.00
  YS02001774YS02001770 CONDUIT     53.71     0  05:11      0.14    0.03    1.00
  YS02001779YS02001774 CONDUIT     54.61     0  05:11      0.09    0.03    1.00
  YS02001649YS02001757 CONDUIT    327.45     0  03:00      0.42    0.20    1.00
  YS02001767YS02001765 CONDUIT    121.20     0  02:36      0.26    0.15    1.00
  YS02006561YS02001783 CONDUIT    352.71     0  02:48      1.84    0.18    0.55
  YS02001783YS02001784 CONDUIT    399.98     0  02:50      1.28    0.55    0.82
  YS02001784YS02001785 CONDUIT    382.55     0  02:51      1.37    0.89    0.88
  YS02001788YS02001790 CONDUIT    436.27     0  03:07      1.92    0.32    0.96
  YS02001790YS02001791 CONDUIT    461.30     0  03:07      2.26    0.50    1.00
  YS02001791YS02001793 CONDUIT    467.19     0  03:08      4.42    0.20    1.00
  YS02001910YS02001907 CONDUIT    109.05     0  02:53      0.49    0.06    0.76
  YS02001786YS02001788 CONDUIT    412.47     0  02:51      1.84    0.79    0.88
  YS02001915YS02001910 CONDUIT    108.83     0  02:53      0.44    0.05    0.55
  YS02001918YS02001915 CONDUIT     36.36     0  03:03      0.44    0.02    0.27
  YS02001923YS02001920 CONDUIT     33.52     0  03:01      0.47    0.02    0.15
  YS02001926YS02001923 CONDUIT     33.49     0  03:01      0.51    0.05    0.14
  YS02001929YS02001926 CONDUIT     33.49     0  03:01      0.54    0.02    0.13
  YS02001920YS02001918 CONDUIT     36.38     0  03:02      0.48    0.04    0.15
  YS02001629YS02163301 CONDUIT    106.74     0  03:05      0.14    0.13    1.00
  YS02001619YS02001622 CONDUIT     83.92     0  03:01      0.69    0.12    0.85
  YS02001622YS02001625 CONDUIT     91.41     0  05:47      0.27    0.05    0.93
  YS02001625YS02001629 CONDUIT     96.58     0  03:11      0.27    0.05    0.93
  YS02163301YS02001633 CONDUIT     97.50     0  03:05      0.12    0.09    1.00
  YS02163601YS02164001 CONDUIT    151.28     0  03:05      0.19    0.13    1.00
  YS02164001YS02001641 CONDUIT    158.53     0  03:04      0.20    0.22    1.00
  YS02001641YS02001644 CONDUIT    163.35     0  03:03      0.21    0.53    1.00
  YS02001647YS02001649 CONDUIT    254.97     0  03:02      0.33    0.13    1.00
  YS02006553YS02006556 CONDUIT    238.83     0  02:53      0.34    0.20    0.84
  YS02006556YS02006558 CONDUIT    239.21     0  02:52      0.33    0.19    0.87
  YSB6556YSB1171       CONDUIT     14.70     0  02:18      0.06    0.02    0.59
  YS02001907YS02006553 CONDUIT    239.38     0  02:53      0.28    0.28    0.96
  YS02006558YS02006561 CONDUIT    355.53     0  02:51      2.41    0.79    0.52
  YS02001633YS02163601 CONDUIT    157.23     0  03:05      0.20    0.17    1.00
  YS02001644YS02001647 CONDUIT    240.95     0  03:03      0.31    0.14    1.00
  YS02001745YS02001748 CONDUIT    124.49     0  05:57      1.43    0.05    0.43
  YS02001748YS02001751 CONDUIT    170.70     0  06:05      1.12    0.09    0.79
  YS02001751YS02001754 CONDUIT    108.43     0  02:49      1.00    0.05    0.97
  YS02001754YS02001757 CONDUIT    115.26     0  03:47      0.33    0.05    1.00
  YS02001882YS02001884 CONDUIT      4.64     0  02:07      0.06    0.01    0.49
  YS02001884YS02001887 CONDUIT     13.25     0  02:07      0.07    0.02    0.58
  YS02001890YS02001895 CONDUIT    132.36     0  02:38      0.30    0.06    0.55
  YS02001895YS02001898 CONDUIT    132.23     0  02:38      0.51    0.23    0.41
  YS02001898YS02001901 CONDUIT    132.38     0  02:39      0.35    0.09    0.49
  YS02001901YS02001904 CONDUIT    131.06     0  02:45      0.30    0.20    0.54
  YS02001904YS02001907 CONDUIT    131.44     0  02:44      0.22    0.05    0.70
  YS02001887YS02001890 CONDUIT    133.22     0  02:38      0.26    0.23    0.64
  YS02001652YS02001649 CONDUIT    131.92     0  02:59      0.35    0.07    1.00
  YS02001655YS02001652 CONDUIT    131.73     0  02:57      1.08    0.06    0.97
  YS02001658YS02001655 CONDUIT    152.31     0  03:39      1.29    0.06    0.78
  YS02001661YS02001658 CONDUIT    130.79     0  05:09      1.49    0.05    0.45
  YS02001664YS02001661 CONDUIT     94.01     0  02:41      1.16    0.03    0.22
  YSB1154YSB6556       CONDUIT     14.37     0  02:15      0.19    0.03    0.48
  YSB1174YSB1171       CONDUIT     13.48     0  02:11      0.06    0.02    0.60
  YSB1171HS02004479    CONDUIT     26.95     0  02:17      0.54    0.02    0.46
  HS02004881HS02006253 CONDUIT     44.08     0  02:16      1.75    0.01    0.23
  YS02001793JiankangQianchi CONDUIT    838.92     0  02:37     12.48    0.07    1.00
  YS02001757CaochengTiaoxuchi CONDUIT    585.34     0  03:01      1.19    0.26    0.87
  WSF200WS02003060     CONDUIT    468.51     0  03:10      1.77    0.10    0.30
  1                    CONDUIT    753.57     0  06:44      3.08    0.26    0.35
  2                    CONDUIT     96.99     0  03:01      4.81    0.23    0.33
  3                    CONDUIT    501.33     0  03:10      9.80    0.80    0.68
  4                    CONDUIT      0.00     0  00:00      0.00    0.00    0.00
  CC-Pump-1            PUMP       200.00     0  03:00              1.00
  CC-Pump-2            PUMP       200.00     0  02:50              1.00
  JK-Pump-1            PUMP       300.00     0  03:00              1.00
  JK-Pump-2            PUMP       300.00     0  00:00              1.00
  XR-Pump-1            PUMP        95.00     0  00:20              1.00
  XR-Pump-2            PUMP        95.00     0  00:20              1.00
  XR-Pump-3            PUMP        95.00     0  00:00              1.00
  XR-Pump-4            PUMP        95.00     0  00:30              1.00
  
  
  ***************************
  Flow Classification Summary
  ***************************
  
  -------------------------------------------------------------------------------------
                      Adjusted    ---------- Fraction of Time in Flow Class ---------- 
                       /Actual         Up    Down  Sub   Sup   Up    Down  Norm  Inlet 
  Conduit               Length    Dry  Dry   Dry   Crit  Crit  Crit  Crit  Ltd   Ctrl  
  -------------------------------------------------------------------------------------
  WS02003066WSF200        1.00   0.03  0.03  0.00  0.00  0.94  0.00  0.00  0.76  0.00
  WS02006287WS02006284    1.00   0.04  0.02  0.00  0.69  0.25  0.00  0.00  0.77  0.00
  WS02006284WS02006280    1.00   0.05  0.00  0.00  0.00  0.00  0.00  0.95  0.00  0.00
  WS02006280WS02006229    1.00   0.05  0.00  0.00  0.00  0.00  0.00  0.95  0.00  0.00
  WS02006229WS02006228    1.00   0.00  0.00  0.00  0.99  0.00  0.00  0.01  0.00  0.00
  WS02006256WS02006235    1.00   0.00  0.00  0.00  1.00  0.00  0.00  0.00  0.00  0.00
  WS02006253WS02006251    1.00   0.03  0.01  0.00  0.95  0.00  0.00  0.00  0.00  0.00
  WS02006252WS02006251    1.00   0.08  0.00  0.00  0.00  0.00  0.92  0.00  0.00  0.00
  WS02006251WS02006249    1.00   0.00  0.00  0.00  1.00  0.00  0.00  0.00  0.29  0.00
  WS02006249WS02006248    1.00   0.00  0.02  0.00  0.87  0.00  0.10  0.00  0.00  0.00
  WS02006248WS02006247    1.00   0.02  0.00  0.00  0.97  0.00  0.00  0.00  0.19  0.00
  WS02006247WS02006245    1.00   0.02  0.00  0.00  0.98  0.00  0.00  0.00  0.00  0.00
  WS02006245WS02006243    1.00   0.01  0.00  0.00  0.94  0.00  0.00  0.04  0.01  0.00
  WS02006243WS02006242    1.00   0.01  0.00  0.00  0.99  0.00  0.00  0.00  0.26  0.00
  WS02006242WS02006240    1.00   0.00  0.00  0.00  1.00  0.00  0.00  0.00  0.00  0.00
  WS02006240WS02006239    1.00   0.00  0.00  0.00  0.95  0.00  0.00  0.04  0.01  0.00
  WS02006239WS02006238    1.00   0.00  0.00  0.00  1.00  0.00  0.00  0.00  0.00  0.00
  WS02006238WS02006235    1.00   0.00  0.00  0.00  1.00  0.00  0.00  0.00  0.00  0.00
  WS02006235WS02006234    1.00   0.00  0.00  0.00  0.95  0.00  0.05  0.00  0.00  0.00
  WS02006234WS02006232    1.00   0.00  0.00  0.00  1.00  0.00  0.00  0.00  0.04  0.00
  WS02006232WS02006231    1.00   0.00  0.00  0.00  0.99  0.00  0.00  0.00  0.00  0.00
  WS02006231WS02006230    1.00   0.00  0.00  0.00  0.50  0.00  0.50  0.00  0.00  0.00
  WS02006230WS02006229    1.00   0.00  0.00  0.00  0.98  0.00  0.00  0.02  0.01  0.00
  WS02006228WS02006109    1.00   0.00  0.00  0.00  1.00  0.00  0.00  0.00  0.00  0.00
  WS02006116WS02004401    1.00   0.03  0.00  0.00  0.97  0.00  0.00  0.00  0.00  0.00
  WS02006115WS02006116    1.00   0.03  0.00  0.00  0.97  0.00  0.00  0.01  0.00  0.00
  WS02006113WS02006111    1.00   0.02  0.00  0.00  0.00  0.98  0.00  0.00  0.12  0.00
  WS02006112WS02006115    1.00   0.02  0.00  0.00  0.97  0.00  0.00  0.00  0.00  0.00
  WS02006111WS02006112    1.00   0.02  0.00  0.00  0.97  0.00  0.00  0.00  0.98  0.00
  WS02006110WS02006113    1.00   0.01  0.01  0.00  0.98  0.00  0.00  0.00  0.00  0.00
  WS02006109WS02006110    1.00   0.00  0.01  0.00  0.98  0.00  0.01  0.00  0.00  0.00
  WS02004411WS02004412    1.00   0.04  0.00  0.00  0.96  0.00  0.00  0.00  0.00  0.00
  WS02004401WS02004402    1.00   0.03  0.00  0.00  0.97  0.00  0.00  0.00  0.00  0.00
  WS02004413WS02003067    1.00   0.04  0.01  0.00  0.00  0.00  0.94  0.00  0.00  0.00
  WS02004412WS02004413    1.00   0.04  0.00  0.00  0.96  0.00  0.00  0.00  0.03  0.00
  WS02004410WS02004411    1.00   0.04  0.00  0.00  0.96  0.00  0.00  0.00  0.03  0.00
  WS02004409WS02004410    1.00   0.04  0.00  0.00  0.96  0.00  0.00  0.00  0.03  0.00
  WS02004407WS02004409    1.00   0.04  0.00  0.00  0.96  0.00  0.00  0.00  0.89  0.00
  WS02004406WS02004407    1.00   0.00  0.04  0.00  0.96  0.00  0.00  0.00  0.00  0.00
  WS02004405WS02004406    1.00   0.00  0.00  0.00  1.00  0.00  0.00  0.00  0.00  0.00
  WS02004404WS02004405    1.00   0.00  0.00  0.00  1.00  0.00  0.00  0.00  0.00  0.00
  WS02004403WS02004404    1.00   0.00  0.03  0.00  0.97  0.00  0.00  0.00  0.01  0.00
  WS02004402WS02004403    1.00   0.03  0.00  0.00  0.97  0.00  0.00  0.00  0.00  0.00
  WS02004139WS02001211    1.00   0.00  0.00  0.00  0.99  0.00  0.01  0.00  0.00  0.00
  WS02004138WS02004139    1.00   0.00  0.00  0.00  0.99  0.01  0.00  0.00  1.00  0.00
  WS02003067WS02003066    1.00   0.06  0.00  0.00  0.94  0.00  0.00  0.00  0.00  0.00
  WS02001213WS02003059    1.00   0.00  0.01  0.00  0.99  0.00  0.00  0.00  0.00  0.00
  WS02001212WS02001213    1.00   0.01  0.00  0.00  0.86  0.00  0.13  0.00  0.00  0.00
  WS02001211WS02001212    1.00   0.00  0.01  0.00  0.99  0.00  0.00  0.00  0.00  0.00
  WS02003072WS02003073    1.00   0.00  0.00  0.00  0.00  0.00  0.00  1.00  0.00  0.00
  WS02003069WS02003072    1.00   0.00  0.00  0.00  0.99  0.01  0.00  0.00  0.26  0.00
  WS02003060WS02003069    1.00   0.00  0.00  0.00  0.99  0.01  0.00  0.00  0.10  0.00
  WS02003059WS02003060    1.00   0.00  0.00  0.00  1.00  0.00  0.00  0.00  0.02  0.00
  HS02004901HS02004770    1.00   0.05  0.00  0.00  0.95  0.00  0.00  0.00  0.03  0.00
  HS02004876HS02004881    1.00   0.02  0.00  0.00  0.98  0.00  0.00  0.00  0.00  0.00
  HS02004870HS02004876    1.00   0.01  0.00  0.00  0.99  0.00  0.00  0.00  0.95  0.00
  HS02004842HS02004848    1.00   0.00  0.05  0.00  0.95  0.00  0.00  0.00  0.69  0.00
  HS02004837HS02004842    1.00   0.00  0.00  0.00  0.99  0.01  0.00  0.00  0.11  0.00
  HS02004830HS02004837    1.00   0.00  0.00  0.00  1.00  0.00  0.00  0.00  0.99  0.00
  HS02004824HS02004830    1.00   0.00  0.00  0.00  1.00  0.00  0.00  0.00  0.00  0.00
  HS02004817HS02004824    1.00   0.00  0.00  0.00  1.00  0.00  0.00  0.00  1.00  0.00
  HS02004770HS02004777    1.00   0.00  0.05  0.00  0.95  0.00  0.00  0.00  0.07  0.00
  HS02004799HS02004480    1.00   0.00  0.03  0.00  0.94  0.00  0.03  0.00  0.00  0.00
  HS02004792HS02004799    1.00   0.00  0.00  0.00  0.99  0.01  0.00  0.00  0.98  0.00
  HS02004788HS02004792    1.00   0.00  0.00  0.00  0.99  0.01  0.00  0.00  0.98  0.00
  HS02004785HS02004788    1.00   0.00  0.00  0.00  1.00  0.00  0.00  0.00  0.00  0.00
  HS02004777HS02004785    1.00   0.00  0.00  0.00  1.00  0.00  0.00  0.00  0.21  0.00
  HS02004480HS02004478    1.00   0.05  0.00  0.00  0.74  0.00  0.00  0.21  0.00  0.00
  HS02004479HS02004480    1.00   0.03  0.00  0.00  0.97  0.00  0.00  0.00  0.16  0.00
  HS02004862HS02004870    1.00   0.00  0.00  0.00  1.00  0.00  0.00  0.00  0.05  0.00
  HS02004848HS02004852    1.00   0.05  0.00  0.00  0.95  0.00  0.00  0.00  0.71  0.00
  HS02004856HS02004862    1.00   0.00  0.07  0.00  0.93  0.00  0.00  0.00  0.74  0.00
  HS02004852HS02004856    1.00   0.05  0.01  0.00  0.95  0.00  0.00  0.00  0.83  0.00
  HS02004802HS02004478    1.00   0.05  0.01  0.00  0.95  0.00  0.00  0.00  0.01  0.00
  HS02004478WS02006287    1.00   0.06  0.00  0.00  0.89  0.05  0.00  0.00  0.76  0.00
  HS02004817HS02004807    1.00   0.00  0.05  0.00  0.95  0.00  0.00  0.00  0.00  0.00
  HS02004807HS02004802    1.00   0.05  0.00  0.00  0.95  0.00  0.00  0.00  0.01  0.00
  YS02001759YS02001757    1.00   0.00  0.00  0.00  1.00  0.00  0.00  0.00  0.17  0.00
  YS02001762YS02001759    1.00   0.00  0.00  0.00  1.00  0.00  0.00  0.00  0.05  0.00
  YS02001765YS02001762    1.00   0.00  0.00  0.00  1.00  0.00  0.00  0.00  0.22  0.00
  YS02001770YS02001767    1.00   0.00  0.00  0.00  1.00  0.00  0.00  0.00  0.00  0.00
  YS02001774YS02001770    1.00   0.00  0.05  0.00  0.95  0.00  0.00  0.00  0.06  0.00
  YS02001779YS02001774    1.00   0.00  0.00  0.00  1.00  0.00  0.00  0.00  0.26  0.00
  YS02001649YS02001757    1.00   0.00  0.00  0.00  1.00  0.00  0.00  0.00  0.19  0.00
  YS02001767YS02001765    1.00   0.00  0.00  0.00  1.00  0.00  0.00  0.00  0.01  0.00
  YS02006561YS02001783    1.00   0.07  0.00  0.00  0.06  0.87  0.00  0.00  0.73  0.00
  YS02001783YS02001784    1.00   0.00  0.07  0.00  0.93  0.00  0.00  0.00  0.00  0.00
  YS02001784YS02001785    1.00   0.00  0.00  0.00  1.00  0.00  0.00  0.00  0.25  0.00
  YS02001788YS02001790    1.00   0.00  0.00  0.00  0.16  0.84  0.00  0.00  0.76  0.00
  YS02001790YS02001791    1.00   0.00  0.00  0.00  0.11  0.89  0.00  0.00  0.50  0.00
  YS02001791YS02001793    1.00   0.00  0.00  0.00  0.12  0.88  0.00  0.00  0.03  0.00
  YS02001910YS02001907    1.00   0.00  0.00  0.00  0.97  0.00  0.00  0.03  0.13  0.00
  YS02001786YS02001788    1.00   0.00  0.00  0.00  0.14  0.86  0.00  0.00  0.00  0.00
  YS02001915YS02001910    1.00   0.00  0.00  0.00  0.99  0.01  0.00  0.00  0.24  0.00
  YS02001918YS02001915    1.00   0.00  0.01  0.00  0.98  0.02  0.00  0.00  0.81  0.00
  YS02001923YS02001920    1.00   0.00  0.00  0.00  1.00  0.00  0.00  0.00  1.00  0.00
  YS02001926YS02001923    1.00   0.00  0.04  0.00  0.00  0.00  0.96  0.00  0.00  0.00
  YS02001929YS02001926    1.00   0.00  0.05  0.00  0.95  0.00  0.00  0.00  0.87  0.00
  YS02001920YS02001918    1.00   0.00  0.01  0.00  0.99  0.00  0.00  0.00  0.00  0.00
  YS02001629YS02163301    1.00   0.06  0.00  0.00  0.93  0.00  0.00  0.00  0.00  0.00
  YS02001619YS02001622    1.00   0.05  0.00  0.00  0.95  0.00  0.00  0.00  0.00  0.00
  YS02001622YS02001625    1.00   0.05  0.00  0.00  0.95  0.00  0.00  0.00  0.13  0.00
  YS02001625YS02001629    1.00   0.05  0.03  0.00  0.92  0.00  0.01  0.00  0.00  0.00
  YS02163301YS02001633    1.00   0.00  0.06  0.00  0.94  0.00  0.00  0.00  0.00  0.00
  YS02163601YS02164001    1.00   0.00  0.04  0.00  0.96  0.00  0.00  0.00  0.00  0.00
  YS02164001YS02001641    1.00   0.01  0.03  0.00  0.96  0.00  0.00  0.00  0.07  0.00
  YS02001641YS02001644    1.00   0.00  0.01  0.00  0.99  0.00  0.00  0.00  0.00  0.00
  YS02001647YS02001649    1.00   0.00  0.07  0.00  0.93  0.00  0.00  0.00  0.01  0.00
  YS02006553YS02006556    1.00   0.02  0.00  0.00  0.98  0.00  0.00  0.00  0.03  0.00
  YS02006556YS02006558    1.00   0.00  0.00  0.00  1.00  0.00  0.00  0.00  0.00  0.00
  YSB6556YSB1171          1.00   0.03  0.02  0.00  0.96  0.00  0.00  0.00  0.00  0.00
  YS02001907YS02006553    1.00   0.00  0.02  0.00  0.97  0.00  0.00  0.00  0.00  0.00
  YS02006558YS02006561    1.00   0.07  0.00  0.00  0.00  0.93  0.00  0.00  0.69  0.00
  YS02001633YS02163601    1.00   0.00  0.01  0.00  0.99  0.00  0.00  0.00  0.20  0.00
  YS02001644YS02001647    1.00   0.00  0.07  0.00  0.93  0.00  0.00  0.00  0.00  0.00
  YS02001745YS02001748    1.00   0.00  0.00  0.00  0.89  0.01  0.00  0.11  0.41  0.00
  YS02001748YS02001751    1.00   0.00  0.00  0.00  0.98  0.02  0.00  0.00  0.24  0.00
  YS02001751YS02001754    1.00   0.00  0.00  0.00  0.92  0.00  0.00  0.07  0.02  0.00
  YS02001754YS02001757    1.00   0.00  0.00  0.00  0.99  0.01  0.00  0.00  0.26  0.00
  YS02001882YS02001884    1.00   0.06  0.00  0.00  0.94  0.00  0.00  0.00  0.00  0.00
  YS02001884YS02001887    1.00   0.03  0.01  0.00  0.96  0.00  0.00  0.00  0.00  0.00
  YS02001890YS02001895    1.00   0.00  0.06  0.00  0.93  0.00  0.00  0.00  0.00  0.00
  YS02001895YS02001898    1.00   0.07  0.00  0.00  0.93  0.00  0.01  0.00  0.00  0.00
  YS02001898YS02001901    1.00   0.06  0.00  0.00  0.93  0.00  0.00  0.00  0.02  0.00
  YS02001901YS02001904    1.00   0.06  0.00  0.00  0.94  0.00  0.00  0.00  0.00  0.00
  YS02001904YS02001907    1.00   0.00  0.06  0.00  0.94  0.00  0.00  0.00  0.00  0.00
  YS02001887YS02001890    1.00   0.00  0.00  0.00  0.97  0.00  0.02  0.00  0.00  0.00
  YS02001652YS02001649    1.00   0.00  0.00  0.00  1.00  0.00  0.00  0.00  0.26  0.00
  YS02001655YS02001652    1.00   0.00  0.00  0.00  0.92  0.00  0.00  0.07  0.02  0.00
  YS02001658YS02001655    1.00   0.00  0.06  0.00  0.92  0.02  0.00  0.00  0.10  0.00
  YS02001661YS02001658    1.00   0.06  0.00  0.00  0.89  0.06  0.00  0.00  0.30  0.00
  YS02001664YS02001661    1.00   0.05  0.00  0.00  0.74  0.21  0.00  0.00  0.86  0.00
  YSB1154YSB6556          1.00   0.04  0.00  0.00  0.96  0.00  0.00  0.00  0.02  0.00
  YSB1174YSB1171          1.00   0.03  0.01  0.00  0.96  0.00  0.00  0.00  0.00  0.00
  YSB1171HS02004479       1.00   0.03  0.00  0.00  0.97  0.00  0.00  0.00  0.13  0.00
  HS02004881HS02006253    1.00   0.03  0.00  0.00  0.69  0.03  0.00  0.25  0.52  0.00
  YS02001793JiankangQianchi    1.00   0.00  0.00  0.00  0.30  0.70  0.00  0.00  0.14  0.00
  YS02001757CaochengTiaoxuchi    1.00   0.00  0.08  0.00  0.92  0.00  0.00  0.00  0.00  0.00
  WSF200WS02003060        1.00   0.00  0.03  0.00  0.62  0.34  0.00  0.00  0.39  0.00
  1                       1.00   0.00  0.00  0.00  0.00  1.00  0.00  0.00  0.35  0.00
  2                       1.00   0.74  0.00  0.00  0.00  0.26  0.00  0.00  0.07  0.00
  3                       1.00   0.20  0.00  0.00  0.00  0.80  0.00  0.00  0.34  0.00
  4                       1.00   1.00  0.00  0.00  0.00  0.00  0.00  0.00  0.00  0.00
  
  
  *************************
  Conduit Surcharge Summary
  *************************
  
  ----------------------------------------------------------------------------
                                                           Hours        Hours 
                         --------- Hours Full --------   Above Full   Capacity
  Conduit                Both Ends  Upstream  Dnstream   Normal Flow   Limited
  ----------------------------------------------------------------------------
  WS02006229WS02006228        1.33      1.57      1.33      3.53         1.33
  WS02006256WS02006235        5.71      5.71      7.68      3.31         0.01
  WS02006252WS02006251        0.77      0.77      1.54      1.34         0.01
  WS02006251WS02006249        0.01      0.01      0.01      0.78         0.01
  WS02006249WS02006248        0.01      0.01      0.01      3.62         0.01
  WS02006247WS02006245        0.01      0.01      0.01      4.21         0.01
  WS02006243WS02006242        0.01      0.01      0.76      0.01         0.01
  WS02006242WS02006240        0.02      0.02      1.12      1.58         0.01
  WS02006240WS02006239        0.08      0.08      0.16      0.01         0.01
  WS02006239WS02006238        0.99      0.99      1.12      0.01         0.01
  WS02006238WS02006235        0.97      0.97      1.37      0.01         0.01
  WS02006235WS02006234        0.01      0.01      0.81      5.68         0.01
  WS02006234WS02006232        0.18      0.18      1.42      0.01         0.01
  WS02006232WS02006231        0.01      0.01      1.42      0.01         0.01
  WS02006231WS02006230        0.01      0.01      0.01      5.73         0.01
  WS02006230WS02006229        2.25      3.06      2.25      5.82         2.24
  WS02006228WS02006109        1.42      1.90      1.42      4.87         1.42
  WS02006111WS02006112        0.01      0.01      3.67      0.01         0.01
  WS02006110WS02006113        0.01      0.01      1.69      0.01         0.01
  WS02006109WS02006110        0.01      0.01      1.89      0.01         0.01
  WS02004404WS02004405        0.01      0.01      0.01      5.63         0.01
  WS02003072WS02003073        0.01      0.01      0.01      4.78         0.01
  YS02001759YS02001757        5.26      5.26      5.38      0.01         0.01
  YS02001762YS02001759        5.20      5.20      5.26      0.01         0.01
  YS02001765YS02001762        5.11      5.11      5.20      0.01         0.01
  YS02001770YS02001767        4.51      4.52      4.68      0.01         0.57
  YS02001774YS02001770        3.96      3.96      5.18      0.01         0.01
  YS02001779YS02001774        0.79      0.79      5.18      0.01         0.01
  YS02001649YS02001757        5.22      5.22      5.38      0.01         0.01
  YS02001767YS02001765        4.68      4.68      5.11      0.01         0.01
  YS02001788YS02001790        0.01      0.01      0.32      0.01         0.01
  YS02001790YS02001791        0.32      0.32      0.37      0.01         0.01
  YS02001791YS02001793        0.37      0.37      0.56      0.01         0.01
  YS02001629YS02163301        3.49      3.49      4.15      0.01         0.01
  YS02001622YS02001625        0.01      0.01      2.03      0.01         0.01
  YS02001625YS02001629        0.01      0.01      2.03      0.01         0.01
  YS02163301YS02001633        4.15      4.15      5.12      0.01         0.01
  YS02163601YS02164001        5.11      5.11      5.22      0.01         0.01
  YS02164001YS02001641        5.11      5.11      5.16      0.01         0.01
  YS02001641YS02001644        5.16      5.16      5.17      0.01         0.42
  YS02001647YS02001649        1.92      1.92      5.22      0.01         0.01
  YS02001633YS02163601        5.07      5.07      5.22      0.01         0.01
  YS02001644YS02001647        1.92      1.92      5.17      0.01         0.01
  YS02001751YS02001754        0.01      0.01      1.08      0.01         0.01
  YS02001754YS02001757        1.94      1.94      5.38      0.01         0.01
  YS02001652YS02001649        2.12      2.12      5.22      0.01         0.01
  YS02001655YS02001652        0.01      0.01      1.59      0.01         0.01
  YS02001793JiankangQianchi        0.48      0.48      1.30      0.01         0.01
  YS02001757CaochengTiaoxuchi        0.01      0.01      5.38      0.01         0.01
  
  
  ***************
  Pumping Summary
  ***************
  
  ---------------------------------------------------------------------------------------------------------
                                                  Min       Avg       Max     Total     Power    % Time Off
                        Percent   Number of      Flow      Flow      Flow    Volume     Usage    Pump Curve
  Pump                 Utilized   Start-Ups       LPS       LPS       LPS  10^6 ltr     Kw-hr    Low   High
  ---------------------------------------------------------------------------------------------------------
  CC-Pump-1               54.00           8      0.00    138.12    200.00     2.058      6.62    0.0   20.8
  CC-Pump-2               53.18           7      0.00    128.92    200.00     1.920      5.98    0.0   11.6
  JK-Pump-1               89.35           5      0.00    127.63    300.00     2.407     38.23    0.0    0.0
  JK-Pump-2               80.85           4      0.00    128.13    300.00     2.046     33.79    0.0    0.0
  XR-Pump-1               68.07           9      0.00     62.55     95.00     1.283     12.95    0.0    0.0
  XR-Pump-2               87.22           7      0.00     65.56     95.00     1.681     20.41    0.0    0.0
  XR-Pump-3               93.61           6      0.00     79.18     95.00     1.995     22.79    0.0    0.0
  XR-Pump-4               78.71           7      0.00     68.17     95.00     1.624     19.61    0.0    0.0
  

  Analysis begun on:  Tue Dec 21 15:22:13 2021
  Analysis ended on:  Tue Dec 21 15:22:15 2021
  Total elapsed time: 00:00:02