
  EPA STORM WATER MANAGEMENT MODEL - VERSION 5.1 (Build 5.3.0.dev0)
  --------------------------------------------------------------

  WARNING 04: minimum elevation drop used for Conduit WS02004404WS02004405
  WARNING 03: negative offset ignored for Link YS02001904YS02001907
  
  *********************************************************
  NOTE: The summary statistics displayed in this report are
  based on results found at every computational time step,  
  not just on results from each reporting time step.
  *********************************************************
  
  ****************
  Analysis Options
  ****************
  Flow Units ............... LPS
  Process Models:
    Rainfall/Runoff ........ YES
    RDII ................... NO
    Snowmelt ............... NO
    Groundwater ............ NO
    Flow Routing ........... YES
    Ponding Allowed ........ NO
    Water Quality .......... NO
  Infiltration Method ...... HORTON
  Flow Routing Method ...... DYNWAVE
  Surcharge Method ......... EXTRAN
  Starting Date ............ 08/28/2015 08:00:00
  Ending Date .............. 08/28/2015 15:50:00
  Antecedent Dry Days ...... 8.0
  Report Time Step ......... 00:01:00
  Wet Time Step ............ 00:01:00
  Dry Time Step ............ 00:01:00
  Routing Time Step ........ 5.00 sec
  Variable Time Step ....... YES
  Maximum Trials ........... 8
  Number of Threads ........ 4
  Head Tolerance ........... 0.001500 m
  
  
  **************************        Volume         Depth
  Runoff Quantity Continuity     hectare-m            mm
  **************************     ---------       -------
  Total Precipitation ......         3.523         7.714
  Evaporation Loss .........         0.000         0.000
  Infiltration Loss ........         0.895         1.959
  Surface Runoff ...........         1.685         3.690
  Final Storage ............         0.944         2.067
  Continuity Error (%) .....        -0.018
  
  
  **************************        Volume        Volume
  Flow Routing Continuity        hectare-m      10^6 ltr
  **************************     ---------     ---------
  Dry Weather Inflow .......         0.616         6.165
  Wet Weather Inflow .......         1.684        16.845
  Groundwater Inflow .......         0.000         0.000
  RDII Inflow ..............         0.000         0.000
  External Inflow ..........         0.102         1.024
  External Outflow .........         1.886        18.857
  Flooding Loss ............         0.120         1.196
  Evaporation Loss .........         0.000         0.000
  Exfiltration Loss ........         0.000         0.000
  Initial Stored Volume ....         0.076         0.761
  Final Stored Volume ......         0.567         5.670
  Continuity Error (%) .....        -3.748
  
  
  *************************
  Highest Continuity Errors
  *************************
  Node YS02001774 (28.43%)
  Node HS02004842 (23.53%)
  Node JK-storage (-17.49%)
  Node YS02001884 (15.13%)
  Node YSB1171 (5.13%)
  
  
  ***************************
  Time-Step Critical Elements
  ***************************
  Link 3 (48.23%)
  Link WS02006252WS02006251 (41.01%)
  Link WS02006238WS02006235 (3.99%)
  Link WS02006280WS02006229 (1.98%)
  
  
  ********************************
  Highest Flow Instability Indexes
  ********************************
  Link WS02006113WS02006111 (38)
  Link WS02006111WS02006112 (24)
  Link WS02006252WS02006251 (21)
  Link YS02001619YS02001622 (20)
  Link YS02001779YS02001774 (20)
  
  
  *************************
  Routing Time Step Summary
  *************************
  Minimum Time Step           :     0.11 sec
  Average Time Step           :     0.84 sec
  Maximum Time Step           :     5.00 sec
  Percent in Steady State     :    -0.00
  Average Iterations per Step :     4.69
  Percent Not Converging      :    33.59
  
  
  ***************************
  Subcatchment Runoff Summary
  ***************************
  
  ------------------------------------------------------------------------------------------------------------------------------
                            Total      Total      Total      Total     Imperv       Perv      Total       Total     Peak  Runoff
                           Precip      Runon       Evap      Infil     Runoff     Runoff     Runoff      Runoff   Runoff   Coeff
  Subcatchment                 mm         mm         mm         mm         mm         mm         mm    10^6 ltr      LPS
  ------------------------------------------------------------------------------------------------------------------------------
  sub0                       7.71       0.00       0.00       0.54       5.91       0.00       5.91        0.00     2.17   0.766
  sub1                       7.71       0.00       0.00       0.85       5.61       0.00       5.61        0.04    11.61   0.727
  sub2                       7.71       0.00       0.00       2.85       3.95       0.00       3.95        0.04    10.31   0.512
  sub3                       7.71       0.00       0.00       2.85       3.92       0.00       3.92        0.09    21.31   0.508
  sub4                       7.71       0.00       0.00       0.85       5.46       0.00       5.46        0.11    24.01   0.708
  sub5                       7.71       0.00       0.00       0.54       5.86       0.00       5.86        0.07    20.66   0.760
  sub7                       7.71       0.00       0.00       0.69       5.77       0.00       5.77        0.02     7.23   0.747
  sub8                       7.71       0.00       0.00       0.69       5.76       0.00       5.76        0.04    12.80   0.746
  sub9                       7.71       0.00       0.00       0.69       5.75       0.00       5.75        0.03     9.49   0.746
  sub10                      7.71       0.00       0.00       0.62       5.81       0.00       5.81        0.06    20.59   0.753
  sub11                      7.71       0.00       0.00       0.62       5.82       0.00       5.82        0.07    24.05   0.755
  sub12                      7.71       0.00       0.00       1.00       5.52       0.00       5.52        0.05    20.16   0.716
  sub14                      7.71       0.00       0.00       0.69       5.75       0.00       5.75        0.05    18.55   0.746
  sub15                      7.71       0.00       0.00       2.31       4.42       0.00       4.42        0.08    25.20   0.573
  sub16                      7.71       0.00       0.00       2.55       4.25       0.00       4.25        0.04    17.78   0.551
  sub17                      7.71       0.00       0.00       2.47       4.31       0.00       4.31        0.04    14.39   0.559
  sub22                      7.71       0.00       0.00       3.32       3.61       0.00       3.61        0.23    82.19   0.468
  sub23                      7.71       0.00       0.00       2.85       3.99       0.00       3.99        0.19    69.97   0.517
  sub60                      7.71       0.00       0.00       0.93       4.17       0.00       4.17        1.26   125.11   0.540
  sub61                      7.71       0.00       0.00       1.31       4.37       0.00       4.37        1.35   155.98   0.566
  sub62                      7.71       0.00       0.00       0.62       4.71       0.00       4.71        1.45   159.69   0.610
  sub63                      7.71       0.00       0.00       2.24       3.86       0.00       3.86        1.17   145.24   0.500
  sub64                      7.71       0.00       0.00       1.16       3.99       0.00       3.99        1.21   118.90   0.517
  sub65                      7.71       0.00       0.00       1.00       4.04       0.00       4.04        1.24   120.72   0.524
  sub66                      7.71       0.00       0.00       2.24       3.46       0.00       3.46        1.06   108.74   0.448
  sub67                      7.71       0.00       0.00       0.62       5.09       0.00       5.09        1.57   203.88   0.660
  sub68                      7.71       0.00       0.00       1.08       4.62       0.00       4.62        1.42   172.19   0.599
  sub69                      7.71       0.00       0.00       1.16       4.91       0.00       4.91        1.15   169.99   0.636
  sub70                      7.71       5.01       0.00       4.33       6.25       0.00       6.25        1.43   142.93   0.491
  sub71                      7.71       0.00       0.00       0.62       4.53       0.00       4.53        1.07   111.70   0.588
  sub72                      7.71       0.00       0.00       0.54       3.35       0.00       3.35        0.68    54.30   0.434
  sub73                      7.71       6.08       0.00       4.69       6.54       0.00       6.54        1.54   124.99   0.474
  sub74                      7.71       0.00       0.00       5.79       1.47       0.00       1.47        0.59    94.63   0.191
  
  
  ******************
  Node Depth Summary
  ******************
  
  ---------------------------------------------------------------------------------
                                 Average  Maximum  Maximum  Time of Max    Reported
                                   Depth    Depth      HGL   Occurrence   Max Depth
  Node                 Type       Meters   Meters   Meters  days hr:min      Meters
  ---------------------------------------------------------------------------------
  WS02001211           JUNCTION     0.66     0.78     5.62     0  02:50        0.78
  WS02001212           JUNCTION     0.38     0.50     5.56     0  02:33        0.50
  WS02001213           JUNCTION     0.62     0.76     5.52     0  02:33        0.76
  WS02003069           JUNCTION     0.45     0.59     5.18     0  02:34        0.59
  WS02003072           JUNCTION     0.51     0.65     5.02     0  02:34        0.65
  WS02003073           JUNCTION     0.31     0.40     4.47     0  02:35        0.40
  WS02003060           JUNCTION     0.40     0.52     5.46     0  02:33        0.52
  WS02003066           JUNCTION     0.24     0.31     5.87     0  02:31        0.31
  WS02003059           JUNCTION     0.68     0.81     5.50     0  02:33        0.81
  WS02003067           JUNCTION     0.59     0.72     6.04     0  02:30        0.72
  WS02004401           JUNCTION     0.69     0.91     6.91     0  02:27        0.91
  WS02004402           JUNCTION     0.72     0.93     6.89     0  02:27        0.93
  WS02004403           JUNCTION     0.74     0.94     6.87     0  02:27        0.94
  WS02004404           JUNCTION     0.81     1.01     6.86     0  02:27        1.01
  WS02004406           JUNCTION     0.82     0.99     6.82     0  02:27        0.99
  WS02004409           JUNCTION     0.51     0.71     6.48     0  02:31        0.71
  WS02004410           JUNCTION     0.53     0.72     6.44     0  02:31        0.72
  WS02004411           JUNCTION     0.54     0.73     6.41     0  02:31        0.73
  WS02004412           JUNCTION     0.56     0.73     6.37     0  02:31        0.73
  WS02004413           JUNCTION     0.72     0.89     6.36     0  02:32        0.89
  WS02004405           JUNCTION     0.81     1.00     6.85     0  02:27        1.00
  WS02006109           JUNCTION     0.77     1.06     7.67     0  02:21        1.04
  WS02006110           JUNCTION     0.76     0.97     7.56     0  02:21        0.97
  WS02006111           JUNCTION     0.22     0.31     7.01     0  02:22        0.30
  WS02006112           JUNCTION     0.86     1.19     7.08     0  02:26        1.12
  WS02006113           JUNCTION     0.35     0.49     7.38     0  02:22        0.48
  WS02006115           JUNCTION     0.58     0.81     6.95     0  02:27        0.81
  WS02006116           JUNCTION     0.66     0.89     6.93     0  02:28        0.89
  WS02006230           JUNCTION     0.75     1.13     7.88     0  02:21        1.10
  WS02006231           JUNCTION     0.50     0.80     7.92     0  02:21        0.77
  WS02006232           JUNCTION     0.64     0.92     7.96     0  02:21        0.90
  WS02006234           JUNCTION     0.56     0.89     8.05     0  02:21        0.86
  WS02006235           JUNCTION     0.60     0.89     8.05     0  02:21        0.86
  WS02006238           JUNCTION     0.62     0.92     8.06     0  02:21        0.88
  WS02006240           JUNCTION     0.53     0.87     8.16     0  02:21        0.79
  WS02006242           JUNCTION     0.58     0.91     8.18     0  02:21        0.85
  WS02006243           JUNCTION     0.47     0.85     8.27     0  02:21        0.74
  WS02006245           JUNCTION     0.44     0.75     8.23     0  02:21        0.70
  WS02006247           JUNCTION     0.46     0.75     8.25     0  02:21        0.72
  WS02006248           JUNCTION     0.41     0.66     8.24     0  02:21        0.64
  WS02006249           JUNCTION     0.44     0.65     8.24     0  02:21        0.65
  WS02006239           JUNCTION     0.58     0.95     8.16     0  02:20        0.85
  WS02006251           JUNCTION     0.43     0.69     8.36     0  02:22        0.69
  WS02006252           JUNCTION     0.39     0.59     8.84     0  04:49        0.59
  WS02006253           JUNCTION     0.46     0.72     8.36     0  02:23        0.72
  WS02006256           JUNCTION     1.05     1.21     8.15     0  02:30        1.21
  WS02004138           JUNCTION     0.15     0.19     7.44     0  02:01        0.19
  WS02004407           JUNCTION     0.23     0.31     6.63     0  02:28        0.31
  WS02006228           JUNCTION     0.77     1.12     7.77     0  02:21        1.10
  WS02006229           JUNCTION     0.75     1.13     7.82     0  02:21        1.11
  WS02006280           JUNCTION     0.06     0.18     8.45     0  02:14        0.18
  WS02006284           JUNCTION     0.36     0.53     8.93     0  02:14        0.53
  WS02006287           JUNCTION     0.09     0.26     9.22     0  02:14        0.26
  WSF200               JUNCTION     0.23     0.33     5.56     0  02:29        0.33
  HS02004901           JUNCTION     0.11     0.27    10.09     0  02:12        0.27
  HS02004881           JUNCTION     0.01     0.03     9.06     0  02:14        0.03
  HS02004876           JUNCTION     0.04     0.11     9.14     0  02:09        0.11
  HS02004870           JUNCTION     0.01     0.05     9.34     0  02:15        0.05
  HS02004862           JUNCTION     0.02     0.06     9.45     0  02:15        0.06
  HS02004856           JUNCTION     0.08     0.12     9.54     0  02:15        0.12
  HS02004852           JUNCTION     0.01     0.04     9.55     0  02:16        0.04
  HS02004848           JUNCTION     0.01     0.04     9.64     0  02:15        0.04
  HS02004842           JUNCTION     0.33     0.37     9.64     0  02:14        0.37
  HS02004837           JUNCTION     0.03     0.06     9.64     0  02:14        0.06
  HS02004830           JUNCTION     0.04     0.07     9.54     0  02:15        0.07
  HS02004824           JUNCTION     0.02     0.05     9.45     0  02:18        0.05
  HS02004817           JUNCTION     0.43     0.57     9.42     0  02:15        0.57
  HS02004807           JUNCTION     0.12     0.24     9.41     0  02:15        0.24
  HS02004802           JUNCTION     0.15     0.28     9.41     0  02:14        0.28
  HS02004799           JUNCTION     0.11     0.32     9.53     0  02:12        0.32
  HS02004792           JUNCTION     0.03     0.13     9.65     0  02:12        0.13
  HS02004788           JUNCTION     0.02     0.10    10.00     0  02:13        0.10
  HS02004785           JUNCTION     0.04     0.17    10.07     0  02:12        0.17
  HS02004777           JUNCTION     0.14     0.29    10.09     0  02:12        0.29
  HS02004770           JUNCTION     0.11     0.26    10.09     0  02:12        0.26
  HS02004480           JUNCTION     0.07     0.25     9.49     0  02:13        0.25
  HS02004479           JUNCTION     0.11     0.29     9.49     0  02:13        0.29
  HS02004478           JUNCTION     0.05     0.17     9.39     0  02:14        0.17
  YS02001745           JUNCTION     0.49     0.75     8.27     0  06:00        0.75
  YS02001748           JUNCTION     0.88     1.20     8.27     0  06:13        1.18
  YS02001751           JUNCTION     1.06     1.40     8.28     0  06:13        1.39
  YS02001754           JUNCTION     1.31     1.68     8.29     0  06:14        1.66
  YS02001762           JUNCTION     1.51     1.90     8.30     0  06:00        1.88
  YS02001765           JUNCTION     1.46     1.85     8.30     0  06:11        1.83
  YS02001767           JUNCTION     1.42     1.82     8.31     0  06:10        1.79
  YS02001770           JUNCTION     1.42     1.82     8.31     0  06:11        1.79
  YS02001774           JUNCTION     1.49     1.91     8.33     0  03:14        1.87
  YS02001779           JUNCTION     1.24     1.67     8.36     0  03:14        1.60
  YS02001882           JUNCTION     0.34     0.60     7.31     0  02:47        0.59
  YS02001884           JUNCTION     0.44     0.69     7.31     0  02:41        0.69
  YS02001759           JUNCTION     1.54     1.93     8.29     0  05:46        1.91
  YS02001887           JUNCTION     0.51     0.77     7.31     0  02:52        0.77
  YS02001890           JUNCTION     0.54     0.80     7.31     0  02:40        0.80
  YS02001898           JUNCTION     0.31     0.56     7.29     0  02:51        0.55
  YS02001901           JUNCTION     0.43     0.69     7.29     0  02:50        0.68
  YS02001904           JUNCTION     0.41     0.67     7.30     0  02:49        0.66
  YS02001907           JUNCTION     0.74     1.00     7.29     0  02:46        1.00
  YS02001910           JUNCTION     0.53     0.78     7.29     0  02:46        0.78
  YS02001915           JUNCTION     0.33     0.57     7.29     0  02:43        0.57
  YS02001918           JUNCTION     0.11     0.22     7.28     0  02:44        0.22
  YS02001619           JUNCTION     1.02     1.51     8.44     0  03:54        1.44
  YS02001629           JUNCTION     1.38     1.85     8.40     0  03:54        1.80
  YS02001641           JUNCTION     1.48     1.89     8.32     0  06:06        1.87
  YS02001644           JUNCTION     1.48     1.89     8.32     0  06:13        1.87
  YS02001652           JUNCTION     1.32     2.06     8.65     0  03:21        1.70
  YS02001655           JUNCTION     1.09     2.20     9.05     0  03:03        1.45
  YS02001920           JUNCTION     0.21     0.29     7.30     0  02:51        0.29
  YS02001923           JUNCTION     0.08     0.11     7.37     0  03:01        0.11
  YS02001926           JUNCTION     0.17     0.21     7.66     0  03:01        0.21
  YS02001929           JUNCTION     0.08     0.11     7.80     0  03:01        0.11
  YS02001658           JUNCTION     0.82     1.46     8.60     0  04:53        1.16
  YS02001661           JUNCTION     0.59     0.91     8.31     0  06:00        0.90
  YS02001664           JUNCTION     0.19     0.41     8.33     0  05:48        0.40
  YS02001622           JUNCTION     1.05     1.52     8.43     0  03:54        1.46
  YS02001633           JUNCTION     1.47     1.92     8.37     0  03:56        1.88
  YS02001649           JUNCTION     1.52     1.91     8.30     0  04:54        1.90
  YS02001757           JUNCTION     1.64     2.03     8.29     0  06:13        2.02
  YS02001895           JUNCTION     0.31     0.55     7.30     0  02:40        0.55
  YS02001625           JUNCTION     1.33     1.78     8.38     0  03:52        1.75
  YS02163301           JUNCTION     1.41     1.88     8.40     0  03:56        1.82
  YS02163601           JUNCTION     1.52     1.95     8.35     0  03:56        1.92
  YS02164001           JUNCTION     1.46     1.88     8.34     0  03:57        1.85
  YS02001647           JUNCTION     1.31     1.70     8.31     0  06:04        1.68
  YSB1154              JUNCTION     0.24     0.44     9.50     0  02:13        0.44
  YSB6556              JUNCTION     0.14     0.33     9.49     0  02:13        0.33
  YSB1174              JUNCTION     0.20     0.39     9.50     0  02:13        0.39
  YSB1171              JUNCTION     0.40     0.59     9.50     0  02:13        0.59
  YS02006553           JUNCTION     0.74     1.04     7.32     0  02:53        1.00
  YS02006561           JUNCTION     0.17     0.32     6.98     0  02:56        0.32
  YS02006556           JUNCTION     0.72     0.98     7.29     0  02:47        0.98
  YS02006558           JUNCTION     0.76     1.02     7.29     0  02:52        1.02
  YS02001783           JUNCTION     0.32     0.75     6.89     0  03:00        0.74
  YS02001784           JUNCTION     0.35     0.79     6.86     0  03:00        0.78
  YS02001786           JUNCTION     0.31     0.78     6.81     0  03:00        0.77
  YS02001788           JUNCTION     0.26     0.78     6.76     0  03:00        0.77
  YS02001790           JUNCTION     0.36     1.07     6.72     0  03:00        1.06
  YS02001791           JUNCTION     0.33     1.18     6.65     0  03:00        1.18
  YS02001793           JUNCTION     0.44     3.26     8.09     0  02:38        1.78
  WS02004139           JUNCTION     0.60     0.73     5.64     0  02:50        0.73
  WSC                  OUTFALL      0.31     0.40     1.07     0  02:35        0.40
  3                    OUTFALL      0.10     0.21     6.21     0  02:30        0.21
  4                    OUTFALL      0.04     0.14     7.14     0  02:23        0.14
  5                    OUTFALL      0.00     0.00     5.00     0  00:00        0.00
  JK-storage           STORAGE      1.89     5.80     6.60     0  02:58        5.80
  CC-storage           STORAGE      0.87     1.25     8.25     0  06:10        1.25
  XR-storage           STORAGE      6.82     7.72     5.72     0  03:23        7.72
  
  
  *******************
  Node Inflow Summary
  *******************
  
  -------------------------------------------------------------------------------------------------
                                  Maximum  Maximum                  Lateral       Total        Flow
                                  Lateral    Total  Time of Max      Inflow      Inflow     Balance
                                   Inflow   Inflow   Occurrence      Volume      Volume       Error
  Node                 Type           LPS      LPS  days hr:min    10^6 ltr    10^6 ltr     Percent
  -------------------------------------------------------------------------------------------------
  WS02001211           JUNCTION      7.35   387.55     0  02:08       0.207        6.64       0.560
  WS02001212           JUNCTION      0.00   387.32     0  02:08           0        6.61       0.323
  WS02001213           JUNCTION      0.00   387.05     0  02:09           0        6.58       0.344
  WS02003069           JUNCTION      0.32   972.99     0  02:33     0.00902        14.5       0.214
  WS02003072           JUNCTION      0.00   973.07     0  02:34           0        14.5       0.261
  WS02003073           JUNCTION      1.82   975.50     0  02:35      0.0514        14.5       0.297
  WS02003060           JUNCTION     16.53   972.61     0  02:34       0.466        14.5       0.203
  WS02003066           JUNCTION      0.00   597.83     0  02:32           0        7.54       0.059
  WS02003059           JUNCTION      0.00   386.69     0  02:10           0        6.56       0.602
  WS02003067           JUNCTION      0.00   597.79     0  02:32           0        7.55       0.125
  WS02004401           JUNCTION      0.00   606.63     0  02:26           0        7.78       0.275
  WS02004402           JUNCTION      0.00   605.27     0  02:27           0        7.76       0.259
  WS02004403           JUNCTION      0.00   604.85     0  02:27           0        7.74       0.236
  WS02004404           JUNCTION      0.16   603.75     0  02:27     0.00457        7.73       0.178
  WS02004406           JUNCTION      0.00   604.45     0  02:27           0        7.69       0.435
  WS02004409           JUNCTION      0.00   602.98     0  02:28           0        7.65       0.214
  WS02004410           JUNCTION      0.00   599.77     0  02:29           0        7.64       0.242
  WS02004411           JUNCTION      0.00   598.41     0  02:29           0        7.62       0.249
  WS02004412           JUNCTION      0.00   597.79     0  02:31           0         7.6       0.269
  WS02004413           JUNCTION      0.00   597.98     0  02:31           0        7.58       0.399
  WS02004405           JUNCTION      0.04   603.89     0  02:27     0.00107        7.71       0.267
  WS02006109           JUNCTION      1.23   610.33     0  02:21      0.0347        7.87       0.236
  WS02006110           JUNCTION      0.00   610.21     0  02:21           0        7.85       0.262
  WS02006111           JUNCTION      0.00   636.50     0  02:22           0        7.82       0.056
  WS02006112           JUNCTION     14.39   621.48     0  02:22       0.037        7.85       0.377
  WS02006113           JUNCTION      0.00   612.00     0  02:22           0        7.83       0.121
  WS02006115           JUNCTION      0.00   635.57     0  02:22           0        7.82       0.263
  WS02006116           JUNCTION      0.00   608.72     0  02:26           0         7.8       0.233
  WS02006230           JUNCTION     10.28   401.99     0  04:20        0.29        6.69       0.192
  WS02006231           JUNCTION      0.00   391.83     0  04:20           0         6.4       0.156
  WS02006232           JUNCTION      0.00   391.84     0  04:20           0        6.42       0.243
  WS02006234           JUNCTION      0.00   391.91     0  04:20           0        6.42       0.131
  WS02006235           JUNCTION      0.00   391.90     0  04:20           0        6.46       0.150
  WS02006238           JUNCTION      0.00   332.05     0  04:40           0        4.56       0.161
  WS02006240           JUNCTION      0.00   333.42     0  04:40           0        4.55       0.249
  WS02006242           JUNCTION      0.00   343.84     0  02:20           0        4.55       0.311
  WS02006243           JUNCTION      0.00   354.42     0  02:19           0        4.54      -0.049
  WS02006245           JUNCTION      0.00   360.35     0  02:19           0        4.55       0.256
  WS02006247           JUNCTION      0.00   365.08     0  02:20           0        4.56       0.150
  WS02006248           JUNCTION      0.00   368.91     0  02:20           0        4.56       0.068
  WS02006249           JUNCTION      0.00   463.93     0  02:23           0        5.33       0.215
  WS02006239           JUNCTION      0.00   332.93     0  04:40           0        4.55       0.159
  WS02006251           JUNCTION      0.08   465.36     0  02:23     0.00217        5.36       0.164
  WS02006252           JUNCTION      0.00   400.00     0  02:20           0        5.12       0.009
  WS02006253           JUNCTION      2.17    65.78     0  02:14     0.00478       0.235       1.566
  WS02006256           JUNCTION      0.00   600.00     0  02:50           0         5.6       0.040
  WS02004138           JUNCTION      0.00   380.00     0  02:00           0        6.47       0.070
  WS02004407           JUNCTION      0.00   603.57     0  02:27           0        7.66       0.096
  WS02006228           JUNCTION      0.00   609.07     0  02:21           0        7.84       0.181
  WS02006229           JUNCTION      0.00   610.61     0  02:21           0        7.86       0.176
  WS02006280           JUNCTION      0.00   325.61     0  02:14           0        1.19       0.006
  WS02006284           JUNCTION      0.10   325.58     0  02:14      0.0027        1.19       0.095
  WS02006287           JUNCTION      0.00   325.40     0  02:14           0        1.19       0.061
  WSF200               JUNCTION      0.00   597.90     0  02:32           0        7.53       0.056
  HS02004901           JUNCTION     17.78    17.78     0  02:08      0.0445      0.0446       4.100
  HS02004881           JUNCTION      7.23    64.12     0  02:14      0.0194       0.207       0.174
  HS02004876           JUNCTION     11.61    57.11     0  02:14      0.0373       0.188       0.285
  HS02004870           JUNCTION     12.80    45.72     0  02:14      0.0368       0.151       0.070
  HS02004862           JUNCTION     10.51    33.74     0  02:15      0.0425       0.115       0.149
  HS02004856           JUNCTION      9.49    23.30     0  02:14      0.0277      0.0735       1.996
  HS02004852           JUNCTION      0.00    14.38     0  02:15           0      0.0459       0.114
  HS02004848           JUNCTION     21.31    21.31     0  02:17      0.0881      0.0881       0.049
  HS02004842           JUNCTION      0.00     7.73     0  02:26           0      0.0553      30.771
  HS02004837           JUNCTION     26.94    33.22     0  02:14       0.243       0.285       0.284
  HS02004830           JUNCTION      0.15    33.34     0  02:14     0.00423       0.276       0.449
  HS02004824           JUNCTION     24.06    57.11     0  02:17       0.115        0.39       0.138
  HS02004817           JUNCTION      0.60    57.70     0  02:18      0.0169       0.406       4.279
  HS02004807           JUNCTION     24.05    79.71     0  02:16      0.0676       0.457       0.933
  HS02004802           JUNCTION      0.00    80.31     0  02:17           0       0.453       0.903
  HS02004799           JUNCTION     18.55   209.67     0  02:12      0.0547       0.642       0.358
  HS02004792           JUNCTION     82.47   191.41     0  02:12       0.236       0.588       0.069
  HS02004788           JUNCTION     26.87   111.24     0  02:12       0.123       0.353       0.110
  HS02004785           JUNCTION      0.15    84.72     0  02:12     0.00423       0.232       0.210
  HS02004777           JUNCTION      0.03    85.10     0  02:10    0.000846       0.232       2.282
  HS02004770           JUNCTION     69.97    86.37     0  02:10        0.19       0.233       1.345
  HS02004480           JUNCTION      0.00   247.46     0  02:12           0       0.753       0.103
  HS02004479           JUNCTION      0.00    38.52     0  02:14           0       0.124       0.592
  HS02004478           JUNCTION      0.00   325.39     0  02:14           0        1.19       0.050
  YS02001745           JUNCTION    125.11   125.11     0  02:54        1.26        1.26       0.584
  YS02001748           JUNCTION      0.04   393.56     0  03:02     0.00127         1.3       1.597
  YS02001751           JUNCTION      0.01   422.42     0  03:02     0.00031        1.28       1.717
  YS02001754           JUNCTION      0.26   225.91     0  02:41     0.00733        1.22       1.937
  YS02001762           JUNCTION      0.00   189.48     0  02:52           0        1.38       1.538
  YS02001765           JUNCTION      0.00   189.15     0  02:52           0        1.38       1.768
  YS02001767           JUNCTION      0.54   188.53     0  02:52      0.0151         1.4       2.597
  YS02001770           JUNCTION    159.84   188.28     0  02:52        1.45        1.48       2.164
  YS02001774           JUNCTION      0.00    59.28     0  02:11           0      0.0875      39.731
  YS02001779           JUNCTION      0.01    39.47     0  03:10    0.000141      0.0375      66.117
  YS02001882           JUNCTION      0.00    12.22     0  02:53           0      0.0102      22.509
  YS02001884           JUNCTION      0.00    17.23     0  02:09           0       0.035      17.834
  YS02001759           JUNCTION    156.02   343.60     0  02:52        1.35        2.69       0.847
  YS02001887           JUNCTION    204.33   212.29     0  02:40        1.58         1.6       0.476
  YS02001890           JUNCTION      0.00   214.35     0  02:37           0        1.57       0.532
  YS02001898           JUNCTION      0.00   211.72     0  02:41           0        1.56       0.166
  YS02001901           JUNCTION      0.00   217.03     0  02:42           0        1.55       0.385
  YS02001904           JUNCTION      0.00   221.57     0  02:45           0        1.55       0.357
  YS02001907           JUNCTION      0.00   405.93     0  02:52           0        3.37       0.680
  YS02001910           JUNCTION      0.00   188.47     0  02:48           0        1.82       0.590
  YS02001915           JUNCTION    111.72   172.54     0  02:52        1.07        1.83       0.278
  YS02001918           JUNCTION      0.00    59.42     0  03:02           0        0.76       0.185
  YS02001619           JUNCTION    108.74   108.74     0  02:51        1.06        1.06       1.127
  YS02001629           JUNCTION      0.00   176.77     0  03:31           0       0.988       2.907
  YS02001641           JUNCTION      0.00   289.89     0  02:42           0        2.13       0.975
  YS02001644           JUNCTION    118.94   406.98     0  02:42        1.21        3.32       0.780
  YS02001652           JUNCTION      0.00   247.49     0  03:00           0        1.12       2.004
  YS02001655           JUNCTION      0.15   436.07     0  02:57     0.00434        1.19       1.759
  YS02001920           JUNCTION      2.87    57.17     0  03:01      0.0809       0.762       0.311
  YS02001923           JUNCTION      0.04    54.30     0  03:01     0.00106       0.682       0.056
  YS02001926           JUNCTION      0.05    54.34     0  03:01     0.00147       0.683       0.386
  YS02001929           JUNCTION     54.30    54.30     0  03:01       0.682       0.682       0.054
  YS02001658           JUNCTION      0.00   428.15     0  03:08           0        1.29       1.111
  YS02001661           JUNCTION      0.00   318.05     0  03:46           0        1.62       0.817
  YS02001664           JUNCTION    145.24   209.97     0  04:36        1.17        1.54       0.156
  YS02001622           JUNCTION      0.00   178.52     0  02:39           0        1.05       3.075
  YS02001633           JUNCTION    120.92   293.17     0  02:43        1.25        2.19       1.457
  YS02001649           JUNCTION      0.00   613.79     0  02:41           0        4.34       0.857
  YS02001757           JUNCTION      0.00  1086.38     0  02:41           0        8.14       1.134
  YS02001895           JUNCTION      0.00   210.81     0  02:37           0        1.56       0.266
  YS02001625           JUNCTION      0.00   176.73     0  03:31           0        1.02       3.967
  YS02163301           JUNCTION      0.00   175.17     0  02:43           0       0.975       2.482
  YS02163601           JUNCTION      0.11   290.90     0  02:43      0.0031        2.15       1.394
  YS02164001           JUNCTION      0.00   289.94     0  02:43           0        2.13       0.916
  YS02001647           JUNCTION      0.00   406.33     0  02:42           0        3.27       0.845
  YSB1154              JUNCTION     20.66    20.66     0  02:12      0.0664      0.0677       2.179
  YSB6556              JUNCTION      0.00    20.68     0  02:14           0      0.0686       1.853
  YSB1174              JUNCTION     20.16    20.16     0  02:07      0.0482      0.0492       2.678
  YSB1171              JUNCTION      0.00    38.48     0  02:13           0       0.123       5.405
  YS02006553           JUNCTION      0.00   402.08     0  02:53           0        3.36       0.441
  YS02006561           JUNCTION      0.00   595.59     0  02:49           0        4.75       0.000
  YS02006556           JUNCTION      0.00   392.85     0  02:48           0        3.36       0.317
  YS02006558           JUNCTION    173.07   578.75     0  02:46        1.45        4.78       0.113
  YS02001783           JUNCTION      0.00   553.56     0  02:44           0        4.75       0.038
  YS02001784           JUNCTION      1.06   554.42     0  02:43      0.0299        4.78       0.061
  YS02001786           JUNCTION      0.06   550.32     0  02:45     0.00159        4.77       0.058
  YS02001788           JUNCTION      0.07   552.82     0  02:49       0.002        4.77       0.035
  YS02001790           JUNCTION      0.15   568.89     0  02:49     0.00437        4.78       0.042
  YS02001791           JUNCTION      0.00   576.43     0  02:50           0        4.77       0.020
  YS02001793           JUNCTION      0.00   902.52     0  02:38           0        4.78      -0.029
  WS02004139           JUNCTION      0.32   380.32     0  02:01     0.00905        6.47       0.590
  WSC                  OUTFALL       0.00   976.24     0  02:35           0        14.4       0.000
  3                    OUTFALL       0.00   528.67     0  02:30           0        3.67       0.000
  4                    OUTFALL       0.00   195.67     0  02:23           0       0.753       0.000
  5                    OUTFALL       0.00     0.00     0  00:00           0           0       0.000 ltr
  JK-storage           STORAGE       0.00  1179.61     0  02:38           0        4.93     -14.886
  CC-storage           STORAGE       0.00  1086.15     0  02:41           0        8.04       0.476
  XR-storage           STORAGE     402.22   402.22     0  02:49        7.77        8.37      -0.001
  
  
  **********************
  Node Surcharge Summary
  **********************
  
  Surcharging occurs when water rises above the top of the highest conduit.
  ---------------------------------------------------------------------
                                               Max. Height   Min. Depth
                                   Hours       Above Crown    Below Rim
  Node                 Type      Surcharged         Meters       Meters
  ---------------------------------------------------------------------
  WS02004404           JUNCTION        0.12          0.009        2.771
  WS02006109           JUNCTION        2.11          0.237        1.583
  WS02006110           JUNCTION        0.54          0.062        1.788
  WS02006112           JUNCTION        0.75          0.193        1.487
  WS02006230           JUNCTION        0.16          0.051        1.519
  WS02006231           JUNCTION        0.28          0.091        1.439
  WS02006232           JUNCTION        2.41          0.224        1.256
  WS02006234           JUNCTION        0.71          0.173        1.067
  WS02006235           JUNCTION        1.62          0.177        1.113
  WS02006238           JUNCTION        2.02          0.195        1.235
  WS02006240           JUNCTION        0.69          0.161        1.229
  WS02006242           JUNCTION        1.66          0.180        0.640
  WS02006243           JUNCTION        0.30          0.145        0.625
  WS02006245           JUNCTION        0.01          0.039        0.811
  WS02006247           JUNCTION        0.01          0.043        0.717
  WS02006239           JUNCTION        0.89          0.207        1.083
  WS02006252           JUNCTION        2.71          0.193        0.907
  WS02006228           JUNCTION        1.96          0.290        1.910
  YS02001748           JUNCTION        2.67          0.116        1.074
  YS02001751           JUNCTION        4.23          0.400        0.800
  YS02001754           JUNCTION        4.95          0.628        0.522
  YS02001762           JUNCTION        5.47          0.896        0.254
  YS02001765           JUNCTION        5.43          0.852        0.248
  YS02001767           JUNCTION        5.29          0.818        0.212
  YS02001770           JUNCTION        5.25          0.787        0.133
  YS02001774           JUNCTION        5.47          0.906        0.144
  YS02001779           JUNCTION        4.77          0.669        0.011
  YS02001759           JUNCTION        5.49          0.929        0.281
  YS02001619           JUNCTION        4.16          0.510        0.100
  YS02001629           JUNCTION        4.19          0.470        0.000
  YS02001641           JUNCTION        5.46          0.885        0.215
  YS02001644           JUNCTION        5.46          0.886        0.034
  YS02001652           JUNCTION        5.07          1.029        0.101
  YS02001655           JUNCTION        4.32          1.200        0.000
  YS02001658           JUNCTION        2.50          0.461        0.839
  YS02001622           JUNCTION        4.22          0.522        0.098
  YS02001633           JUNCTION        5.41          0.900        0.160
  YS02001649           JUNCTION        5.47          0.913        0.137
  YS02001757           JUNCTION        5.53          1.028        0.182
  YS02001625           JUNCTION        5.15          0.780        0.000
  YS02163301           JUNCTION        5.30          0.882        0.148
  YS02163601           JUNCTION        5.47          0.954        0.126
  YS02164001           JUNCTION        5.43          0.879        0.221
  YS02001647           JUNCTION        5.10          0.696        0.204
  YS02006553           JUNCTION        0.02          0.035        1.155
  YS02001790           JUNCTION        0.78          0.271        0.886
  YS02001791           JUNCTION        1.11          0.384        1.536
  YS02001793           JUNCTION        1.32          2.258        0.342
  
  
  *********************
  Node Flooding Summary
  *********************
  
  Flooding refers to all water that overflows a node, whether it ponds or not.
  --------------------------------------------------------------------------
                                                             Total   Maximum
                                 Maximum   Time of Max       Flood    Ponded
                        Hours       Rate    Occurrence      Volume     Depth
  Node                 Flooded       LPS   days hr:min    10^6 ltr    Meters
  --------------------------------------------------------------------------
  YS02001629              0.01      5.23      0  03:56       0.000     0.000
  YS02001655              0.01    139.62      0  03:21       0.000     0.000
  YS02001625              0.01      9.39      0  03:56       0.000     0.000
  JK-storage              0.45    235.26      0  03:00       0.188     0.000
  XR-storage              3.70    180.50      0  05:20       1.007     0.000
  
  
  **********************
  Storage Volume Summary
  **********************
  
  --------------------------------------------------------------------------------------------------
                         Average     Avg  Evap Exfil       Maximum     Max    Time of Max    Maximum
                          Volume    Pcnt  Pcnt  Pcnt        Volume    Pcnt     Occurrence    Outflow
  Storage Unit           1000 m3    Full  Loss  Loss       1000 m3    Full    days hr:min        LPS
  --------------------------------------------------------------------------------------------------
  JK-storage               0.095      33     0     0         0.291     100       0  02:58     719.36
  CC-storage               2.419      15     0     0         3.485      22       0  06:10     400.00
  XR-storage               0.818      88     0     0         0.926     100       0  03:23     380.00
  
  
  ***********************
  Outfall Loading Summary
  ***********************
  
  -----------------------------------------------------------
                         Flow       Avg       Max       Total
                         Freq      Flow      Flow      Volume
  Outfall Node           Pcnt       LPS       LPS    10^6 ltr
  -----------------------------------------------------------
  WSC                  100.00    597.53    976.24      14.438
  3                     86.81    208.29    528.67       3.666
  4                     43.34     81.65    195.67       0.753
  5                      0.00      0.00      0.00       0.000
  -----------------------------------------------------------
  System                57.54    887.48   1572.10      18.857
  
  
  ********************
  Link Flow Summary
  ********************
  
  -----------------------------------------------------------------------------
                                 Maximum  Time of Max   Maximum    Max/    Max/
                                  |Flow|   Occurrence   |Veloc|    Full    Full
  Link                 Type          LPS  days hr:min     m/sec    Flow   Depth
  -----------------------------------------------------------------------------
  WS02003066WSF200     CONDUIT    597.90     0  02:32      2.79    0.10    0.25
  WS02006287WS02006284 CONDUIT    325.48     0  02:14      1.89    0.15    0.27
  WS02006284WS02006280 CONDUIT    325.61     0  02:14      2.13    0.14    0.25
  WS02006280WS02006229 CONDUIT    325.61     0  02:14      3.43    0.07    0.18
  WS02006229WS02006228 CONDUIT    609.07     0  02:21      1.21    2.02    1.00
  WS02006256WS02006235 CONDUIT    149.95     0  00:15      2.14    1.59    1.00
  WS02006253WS02006251 CONDUIT     65.28     0  02:23      0.58    0.20    0.99
  WS02006252WS02006251 CONDUIT    400.64     0  04:41      3.19    1.47    1.00
  WS02006251WS02006249 CONDUIT    463.93     0  02:23      1.27    1.34    0.95
  WS02006249WS02006248 CONDUIT    368.91     0  02:20      1.20    2.02    0.90
  WS02006248WS02006247 CONDUIT    365.08     0  02:20      1.18    0.79    0.97
  WS02006247WS02006245 CONDUIT    360.35     0  02:19      1.15    2.86    1.00
  WS02006245WS02006243 CONDUIT    354.42     0  02:19      1.23    1.05    1.00
  WS02006243WS02006242 CONDUIT    343.84     0  02:20      1.10    0.73    1.00
  WS02006242WS02006240 CONDUIT    333.42     0  04:40      0.99    1.32    1.00
  WS02006240WS02006239 CONDUIT    332.93     0  04:40      1.03    1.05    1.00
  WS02006239WS02006238 CONDUIT    332.05     0  04:40      0.90    1.06    1.00
  WS02006238WS02006235 CONDUIT    331.15     0  04:40      0.89    0.74    1.00
  WS02006235WS02006234 CONDUIT    391.91     0  04:20      1.04    4.13    1.00
  WS02006234WS02006232 CONDUIT    391.84     0  04:20      1.02    0.79    1.00
  WS02006232WS02006231 CONDUIT    391.83     0  04:20      1.06    0.82    1.00
  WS02006231WS02006230 CONDUIT    391.71     0  04:20      1.36    5.94    1.00
  WS02006230WS02006229 CONDUIT    401.88     0  04:20      1.04    8.94    1.00
  WS02006228WS02006109 CONDUIT    609.10     0  02:21      1.21    2.66    1.00
  WS02006116WS02004401 CONDUIT    606.63     0  02:26      0.83    0.84    0.90
  WS02006115WS02006116 CONDUIT    608.72     0  02:26      0.94    0.78    0.82
  WS02006113WS02006111 CONDUIT    636.50     0  02:22      2.57    0.76    0.49
  WS02006112WS02006115 CONDUIT    635.57     0  02:22      0.88    0.38    0.90
  WS02006111WS02006112 CONDUIT    611.66     0  02:22      1.67    0.29    0.68
  WS02006110WS02006113 CONDUIT    612.00     0  02:22      1.41    0.56    0.80
  WS02006109WS02006110 CONDUIT    610.21     0  02:21      1.21    1.17    1.00
  WS02004411WS02004412 CONDUIT    597.79     0  02:31      0.98    0.85    0.73
  WS02004401WS02004402 CONDUIT    605.27     0  02:27      0.83    0.73    0.92
  WS02004413WS02003067 CONDUIT    597.79     0  02:32      1.18    0.26    0.62
  WS02004412WS02004413 CONDUIT    597.98     0  02:31      0.88    0.40    0.81
  WS02004410WS02004411 CONDUIT    598.41     0  02:29      0.99    0.82    0.72
  WS02004409WS02004410 CONDUIT    599.77     0  02:29      1.03    0.78    0.71
  WS02004407WS02004409 CONDUIT    602.98     0  02:28      1.56    0.21    0.51
  WS02004406WS02004407 CONDUIT    603.57     0  02:27      1.11    0.27    0.65
  WS02004405WS02004406 CONDUIT    604.45     0  02:27      0.77    1.19    0.99
  WS02004404WS02004405 CONDUIT    603.85     0  02:27      0.96    5.92    1.00
  WS02004403WS02004404 CONDUIT    603.59     0  02:27      0.84    0.44    0.97
  WS02004402WS02004403 CONDUIT    604.85     0  02:27      0.85    0.87    0.94
  WS02004139WS02001211 CONDUIT    380.21     0  02:08      0.69    0.48    0.59
  WS02004138WS02004139 CONDUIT    380.00     0  02:01      2.95    0.08    0.43
  WS02003067WS02003066 CONDUIT    597.83     0  02:32      1.28    0.19    0.43
  WS02001213WS02003059 CONDUIT    386.69     0  02:10      0.68    0.64    0.77
  WS02001212WS02001213 CONDUIT    387.05     0  02:09      1.32    0.60    0.47
  WS02001211WS02001212 CONDUIT    387.32     0  02:08      0.78    0.30    0.64
  WS02003072WS02003073 CONDUIT    973.68     0  02:35      1.75    2.10    0.49
  WS02003069WS02003072 CONDUIT    973.07     0  02:34      1.64    0.47    0.52
  WS02003060WS02003069 CONDUIT    972.67     0  02:33      1.88    0.38    0.47
  WS02003059WS02003060 CONDUIT    386.07     0  02:10      0.92    0.25    0.67
  HS02004901HS02004770 CONDUIT     16.75     0  02:11      0.06    0.06    0.38
  HS02004876HS02004881 CONDUIT     57.42     0  02:14      0.83    0.61    0.10
  HS02004870HS02004876 CONDUIT     45.69     0  02:15      0.57    0.03    0.12
  HS02004842HS02004848 CONDUIT      7.73     0  02:26      0.04    0.00    0.29
  HS02004837HS02004842 CONDUIT      8.03     0  02:27      0.42    0.00    0.30
  HS02004830HS02004837 CONDUIT     33.19     0  02:14      0.51    0.03    0.09
  HS02004824HS02004830 CONDUIT     33.34     0  02:15      0.55    0.04    0.09
  HS02004817HS02004824 CONDUIT     57.10     0  02:18      0.19    0.03    0.44
  HS02004770HS02004777 CONDUIT     85.07     0  02:10      0.31    0.16    0.40
  HS02004799HS02004480 CONDUIT    209.38     0  02:12      0.75    0.26    0.40
  HS02004792HS02004799 CONDUIT    191.29     0  02:12      0.86    0.12    0.32
  HS02004788HS02004792 CONDUIT    111.15     0  02:13      0.98    0.07    0.16
  HS02004785HS02004788 CONDUIT     84.62     0  02:12      0.64    0.64    0.19
  HS02004777HS02004785 CONDUIT     84.57     0  02:12      0.37    0.10    0.33
  HS02004480HS02004478 CONDUIT    247.37     0  02:13      1.16    1.04    0.30
  HS02004479HS02004480 CONDUIT     38.86     0  02:15      0.15    0.04    0.39
  HS02004862HS02004870 CONDUIT     33.69     0  02:15      0.57    0.04    0.08
  HS02004848HS02004852 CONDUIT     14.38     0  02:15      0.39    0.02    0.05
  HS02004856HS02004862 CONDUIT     23.25     0  02:15      0.42    0.02    0.08
  HS02004852HS02004856 CONDUIT     14.34     0  02:16      0.19    0.02    0.11
  HS02004802HS02004478 CONDUIT     81.01     0  02:17      0.37    0.07    0.32
  HS02004478WS02006287 CONDUIT    325.40     0  02:14      1.59    0.09    0.23
  HS02004817HS02004807 CONDUIT     58.69     0  02:19      0.15    0.03    0.58
  HS02004807HS02004802 CONDUIT     80.31     0  02:17      0.32    0.15    0.37
  YS02001759YS02001757 CONDUIT    343.43     0  02:52      0.44    0.24    1.00
  YS02001762YS02001759 CONDUIT    189.49     0  02:52      0.24    0.22    1.00
  YS02001765YS02001762 CONDUIT    189.48     0  02:52      0.24    0.18    1.00
  YS02001770YS02001767 CONDUIT    188.00     0  02:52      0.32    0.74    1.00
  YS02001774YS02001770 CONDUIT     59.28     0  02:11      0.14    0.04    1.00
  YS02001779YS02001774 CONDUIT     39.47     0  03:10      0.09    0.02    1.00
  YS02001649YS02001757 CONDUIT    614.20     0  02:41      0.78    0.37    1.00
  YS02001767YS02001765 CONDUIT    189.15     0  02:52      0.26    0.24    1.00
  YS02006561YS02001783 CONDUIT    553.56     0  02:44      2.05    0.29    0.65
  YS02001783YS02001784 CONDUIT    553.36     0  02:43      1.49    0.76    0.96
  YS02001784YS02001785 CONDUIT    550.26     0  02:45      1.60    1.28    0.98
  YS02001788YS02001790 CONDUIT    568.73     0  02:49      2.14    0.42    0.99
  YS02001790YS02001791 CONDUIT    576.43     0  02:50      2.54    0.63    1.00
  YS02001791YS02001793 CONDUIT    712.22     0  02:39      5.12    0.31    1.00
  YS02001910YS02001907 CONDUIT    189.78     0  03:03      0.49    0.11    0.89
  YS02001786YS02001788 CONDUIT    552.74     0  02:49      2.07    1.07    0.97
  YS02001915YS02001910 CONDUIT    188.47     0  02:48      0.45    0.09    0.67
  YS02001918YS02001915 CONDUIT     63.59     0  03:08      0.44    0.04    0.39
  YS02001923YS02001920 CONDUIT     54.30     0  03:01      0.55    0.02    0.20
  YS02001926YS02001923 CONDUIT     54.27     0  03:01      0.61    0.08    0.17
  YS02001929YS02001926 CONDUIT     54.29     0  03:01      0.66    0.03    0.16
  YS02001920YS02001918 CONDUIT     59.42     0  03:02      0.55    0.06    0.25
  YS02001629YS02163301 CONDUIT    175.17     0  02:43      0.22    0.22    1.00
  YS02001619YS02001622 CONDUIT    178.52     0  02:39      0.75    0.26    1.00
  YS02001622YS02001625 CONDUIT    176.73     0  03:31      0.31    0.09    1.00
  YS02001625YS02001629 CONDUIT    176.77     0  03:31      0.31    0.08    1.00
  YS02163301YS02001633 CONDUIT    174.52     0  02:43      0.22    0.16    1.00
  YS02163601YS02164001 CONDUIT    289.94     0  02:43      0.37    0.26    1.00
  YS02164001YS02001641 CONDUIT    289.89     0  02:42      0.37    0.40    1.00
  YS02001641YS02001644 CONDUIT    290.09     0  02:42      0.37    0.94    1.00
  YS02001647YS02001649 CONDUIT    436.97     0  02:42      0.56    0.23    1.00
  YS02006553YS02006556 CONDUIT    392.85     0  02:48      0.51    0.34    0.97
  YS02006556YS02006558 CONDUIT    406.90     0  02:46      0.52    0.32    0.99
  YSB6556YSB1171       CONDUIT     21.09     0  02:15      0.08    0.02    0.66
  YS02001907YS02006553 CONDUIT    402.08     0  02:53      0.45    0.47    1.00
  YS02006558YS02006561 CONDUIT    595.59     0  02:49      2.96    1.32    0.68
  YS02001633YS02163601 CONDUIT    290.79     0  02:43      0.37    0.31    1.00
  YS02001644YS02001647 CONDUIT    406.33     0  02:42      0.52    0.24    1.00
  YS02001745YS02001748 CONDUIT    233.53     0  02:58      1.57    0.09    0.87
  YS02001748YS02001751 CONDUIT    422.41     0  03:02      1.22    0.21    1.00
  YS02001751YS02001754 CONDUIT    225.65     0  02:41      1.05    0.11    1.00
  YS02001754YS02001757 CONDUIT    233.26     0  03:06      0.33    0.09    1.00
  YS02001882YS02001884 CONDUIT     13.38     0  02:52      0.06    0.02    0.61
  YS02001884YS02001887 CONDUIT     17.23     0  02:09      0.07    0.02    0.71
  YS02001890YS02001895 CONDUIT    210.81     0  02:37      0.38    0.10    0.68
  YS02001895YS02001898 CONDUIT    211.72     0  02:41      0.52    0.37    0.54
  YS02001898YS02001901 CONDUIT    217.03     0  02:42      0.43    0.14    0.62
  YS02001901YS02001904 CONDUIT    221.57     0  02:45      0.40    0.34    0.67
  YS02001904YS02001907 CONDUIT    223.94     0  02:51      0.32    0.08    0.83
  YS02001887YS02001890 CONDUIT    214.35     0  02:37      0.34    0.37    0.76
  YS02001652YS02001649 CONDUIT    246.20     0  03:00      0.36    0.12    1.00
  YS02001655YS02001652 CONDUIT    247.49     0  03:00      1.12    0.12    1.00
  YS02001658YS02001655 CONDUIT    435.92     0  02:57      1.41    0.18    1.00
  YS02001661YS02001658 CONDUIT    374.19     0  03:45      1.65    0.15    0.92
  YS02001664YS02001661 CONDUIT    253.81     0  04:36      1.41    0.08    0.61
  YSB1154YSB6556       CONDUIT     20.68     0  02:14      0.19    0.04    0.55
  YSB1174YSB1171       CONDUIT     18.77     0  02:08      0.07    0.03    0.66
  YSB1171HS02004479    CONDUIT     38.52     0  02:14      0.54    0.03    0.52
  HS02004881HS02006253 CONDUIT     64.09     0  02:14      2.01    0.01    0.29
  YS02001793JiankangQianchi CONDUIT   1179.61     0  02:38     12.15    0.09    1.00
  YS02001757CaochengTiaoxuchi CONDUIT   1086.15     0  02:41      2.27    0.48    1.00
  WSF200WS02003060     CONDUIT    598.75     0  02:31      1.80    0.13    0.35
  1                    CONDUIT    976.24     0  02:35      3.31    0.34    0.40
  2                    CONDUIT    195.67     0  02:23      5.81    0.47    0.48
  3                    CONDUIT    528.67     0  02:30      9.89    0.84    0.71
  4                    CONDUIT      0.00     0  00:00      0.00    0.00    0.00
  CC-Pump-1            PUMP       200.00     0  02:20              1.00
  CC-Pump-2            PUMP       200.00     0  02:14              1.00
  JK-Pump-1            PUMP       300.00     0  02:30              1.00
  JK-Pump-2            PUMP       300.00     0  00:20              1.00
  XR-Pump-1            PUMP        95.00     0  00:20              1.00
  XR-Pump-2            PUMP        95.00     0  00:00              1.00
  XR-Pump-3            PUMP        95.00     0  00:00              1.00
  XR-Pump-4            PUMP        95.00     0  00:40              1.00
  
  
  ***************************
  Flow Classification Summary
  ***************************
  
  -------------------------------------------------------------------------------------
                      Adjusted    ---------- Fraction of Time in Flow Class ---------- 
                       /Actual         Up    Down  Sub   Sup   Up    Down  Norm  Inlet 
  Conduit               Length    Dry  Dry   Dry   Crit  Crit  Crit  Crit  Ltd   Ctrl  
  -------------------------------------------------------------------------------------
  WS02003066WSF200        1.00   0.02  0.03  0.00  0.00  0.95  0.00  0.00  0.69  0.00
  WS02006287WS02006284    1.00   0.04  0.01  0.00  0.67  0.28  0.00  0.00  0.76  0.00
  WS02006284WS02006280    1.00   0.04  0.00  0.00  0.00  0.00  0.00  0.96  0.00  0.00
  WS02006280WS02006229    1.00   0.04  0.00  0.00  0.00  0.00  0.00  0.96  0.00  0.00
  WS02006229WS02006228    1.00   0.00  0.00  0.00  1.00  0.00  0.00  0.00  0.00  0.00
  WS02006256WS02006235    1.00   0.00  0.00  0.00  1.00  0.00  0.00  0.00  0.00  0.00
  WS02006253WS02006251    1.00   0.03  0.01  0.00  0.96  0.00  0.00  0.00  0.00  0.00
  WS02006252WS02006251    1.00   0.07  0.00  0.00  0.00  0.00  0.93  0.00  0.00  0.00
  WS02006251WS02006249    1.00   0.00  0.00  0.00  1.00  0.00  0.00  0.00  0.27  0.00
  WS02006249WS02006248    1.00   0.00  0.00  0.00  0.89  0.00  0.11  0.00  0.00  0.00
  WS02006248WS02006247    1.00   0.00  0.00  0.00  0.98  0.00  0.00  0.02  0.17  0.00
  WS02006247WS02006245    1.00   0.00  0.00  0.00  0.98  0.00  0.00  0.01  0.00  0.00
  WS02006245WS02006243    1.00   0.01  0.00  0.00  0.95  0.00  0.00  0.04  0.01  0.00
  WS02006243WS02006242    1.00   0.01  0.00  0.00  0.99  0.00  0.00  0.00  0.23  0.00
  WS02006242WS02006240    1.00   0.01  0.00  0.00  0.99  0.00  0.00  0.00  0.00  0.00
  WS02006240WS02006239    1.00   0.00  0.00  0.00  0.96  0.00  0.00  0.03  0.01  0.00
  WS02006239WS02006238    1.00   0.00  0.00  0.00  1.00  0.00  0.00  0.00  0.00  0.00
  WS02006238WS02006235    1.00   0.00  0.00  0.00  1.00  0.00  0.00  0.00  0.00  0.00
  WS02006235WS02006234    1.00   0.00  0.00  0.00  0.96  0.00  0.03  0.00  0.00  0.00
  WS02006234WS02006232    1.00   0.00  0.00  0.00  1.00  0.00  0.00  0.00  0.07  0.00
  WS02006232WS02006231    1.00   0.00  0.00  0.00  0.99  0.00  0.00  0.00  0.00  0.00
  WS02006231WS02006230    1.00   0.01  0.00  0.00  0.64  0.00  0.36  0.00  0.00  0.00
  WS02006230WS02006229    1.00   0.00  0.00  0.00  0.99  0.00  0.00  0.01  0.01  0.00
  WS02006228WS02006109    1.00   0.00  0.00  0.00  1.00  0.00  0.00  0.00  0.00  0.00
  WS02006116WS02004401    1.00   0.03  0.00  0.00  0.97  0.00  0.00  0.00  0.00  0.00
  WS02006115WS02006116    1.00   0.02  0.00  0.00  0.97  0.00  0.00  0.00  0.00  0.00
  WS02006113WS02006111    1.00   0.01  0.00  0.00  0.00  0.99  0.00  0.00  0.11  0.00
  WS02006112WS02006115    1.00   0.02  0.01  0.00  0.97  0.00  0.00  0.00  0.00  0.00
  WS02006111WS02006112    1.00   0.02  0.00  0.00  0.98  0.00  0.00  0.00  0.95  0.00
  WS02006110WS02006113    1.00   0.00  0.01  0.00  0.99  0.00  0.00  0.00  0.00  0.00
  WS02006109WS02006110    1.00   0.00  0.00  0.00  1.00  0.00  0.00  0.00  0.00  0.00
  WS02004411WS02004412    1.00   0.03  0.00  0.00  0.97  0.00  0.00  0.00  0.00  0.00
  WS02004401WS02004402    1.00   0.03  0.00  0.00  0.97  0.00  0.00  0.00  0.00  0.00
  WS02004413WS02003067    1.00   0.04  0.01  0.00  0.00  0.00  0.95  0.00  0.00  0.00
  WS02004412WS02004413    1.00   0.03  0.00  0.00  0.97  0.00  0.00  0.00  0.02  0.00
  WS02004410WS02004411    1.00   0.03  0.00  0.00  0.97  0.00  0.00  0.00  0.02  0.00
  WS02004409WS02004410    1.00   0.03  0.00  0.00  0.97  0.00  0.00  0.00  0.04  0.00
  WS02004407WS02004409    1.00   0.03  0.00  0.00  0.96  0.00  0.00  0.00  0.90  0.00
  WS02004406WS02004407    1.00   0.00  0.03  0.00  0.97  0.00  0.00  0.00  0.00  0.00
  WS02004405WS02004406    1.00   0.00  0.00  0.00  1.00  0.00  0.00  0.00  0.03  0.00
  WS02004404WS02004405    1.00   0.00  0.00  0.00  1.00  0.00  0.00  0.00  0.00  0.00
  WS02004403WS02004404    1.00   0.00  0.03  0.00  0.97  0.00  0.00  0.00  0.00  0.00
  WS02004402WS02004403    1.00   0.03  0.00  0.00  0.97  0.00  0.00  0.00  0.00  0.00
  WS02004139WS02001211    1.00   0.00  0.00  0.00  1.00  0.00  0.00  0.00  0.00  0.00
  WS02004138WS02004139    1.00   0.00  0.00  0.00  1.00  0.00  0.00  0.00  1.00  0.00
  WS02003067WS02003066    1.00   0.05  0.00  0.00  0.95  0.00  0.00  0.00  0.00  0.00
  WS02001213WS02003059    1.00   0.00  0.00  0.00  1.00  0.00  0.00  0.00  0.00  0.00
  WS02001212WS02001213    1.00   0.00  0.00  0.00  0.89  0.00  0.11  0.00  0.00  0.00
  WS02001211WS02001212    1.00   0.00  0.00  0.00  1.00  0.00  0.00  0.00  0.00  0.00
  WS02003072WS02003073    1.00   0.00  0.00  0.00  0.00  0.00  0.00  1.00  0.00  0.00
  WS02003069WS02003072    1.00   0.00  0.00  0.00  1.00  0.00  0.00  0.00  0.21  0.00
  WS02003060WS02003069    1.00   0.00  0.00  0.00  1.00  0.00  0.00  0.00  0.14  0.00
  WS02003059WS02003060    1.00   0.00  0.00  0.00  1.00  0.00  0.00  0.00  0.01  0.00
  HS02004901HS02004770    1.00   0.04  0.00  0.00  0.96  0.00  0.00  0.00  0.02  0.00
  HS02004876HS02004881    1.00   0.00  0.00  0.00  0.98  0.01  0.00  0.00  0.00  0.00
  HS02004870HS02004876    1.00   0.00  0.00  0.00  1.00  0.00  0.00  0.00  0.95  0.00
  HS02004842HS02004848    1.00   0.00  0.04  0.00  0.96  0.00  0.00  0.00  0.67  0.00
  HS02004837HS02004842    1.00   0.00  0.00  0.00  1.00  0.00  0.00  0.00  0.11  0.00
  HS02004830HS02004837    1.00   0.00  0.00  0.00  1.00  0.00  0.00  0.00  0.99  0.00
  HS02004824HS02004830    1.00   0.00  0.00  0.00  1.00  0.00  0.00  0.00  0.00  0.00
  HS02004817HS02004824    1.00   0.00  0.00  0.00  1.00  0.00  0.00  0.00  1.00  0.00
  HS02004770HS02004777    1.00   0.00  0.04  0.00  0.96  0.00  0.00  0.00  0.07  0.00
  HS02004799HS02004480    1.00   0.00  0.01  0.00  0.95  0.00  0.04  0.00  0.00  0.00
  HS02004792HS02004799    1.00   0.00  0.00  0.00  1.00  0.00  0.00  0.00  0.98  0.00
  HS02004788HS02004792    1.00   0.00  0.00  0.00  1.00  0.00  0.00  0.00  0.98  0.00
  HS02004785HS02004788    1.00   0.00  0.00  0.00  1.00  0.00  0.00  0.00  0.00  0.00
  HS02004777HS02004785    1.00   0.00  0.00  0.00  1.00  0.00  0.00  0.00  0.20  0.00
  HS02004480HS02004478    1.00   0.04  0.00  0.00  0.72  0.00  0.00  0.24  0.00  0.00
  HS02004479HS02004480    1.00   0.01  0.00  0.00  0.99  0.00  0.00  0.00  0.15  0.00
  HS02004862HS02004870    1.00   0.00  0.00  0.00  1.00  0.00  0.00  0.00  0.06  0.00
  HS02004848HS02004852    1.00   0.04  0.00  0.00  0.96  0.00  0.00  0.00  0.71  0.00
  HS02004856HS02004862    1.00   0.00  0.06  0.00  0.94  0.00  0.00  0.00  0.75  0.00
  HS02004852HS02004856    1.00   0.04  0.01  0.00  0.95  0.00  0.00  0.00  0.83  0.00
  HS02004802HS02004478    1.00   0.04  0.00  0.00  0.95  0.00  0.00  0.00  0.01  0.00
  HS02004478WS02006287    1.00   0.05  0.00  0.00  0.83  0.12  0.00  0.00  0.73  0.00
  HS02004817HS02004807    1.00   0.00  0.04  0.00  0.96  0.00  0.00  0.00  0.00  0.00
  HS02004807HS02004802    1.00   0.04  0.00  0.00  0.96  0.00  0.00  0.00  0.01  0.00
  YS02001759YS02001757    1.00   0.00  0.00  0.00  1.00  0.00  0.00  0.00  0.17  0.00
  YS02001762YS02001759    1.00   0.00  0.00  0.00  1.00  0.00  0.00  0.00  0.04  0.00
  YS02001765YS02001762    1.00   0.00  0.00  0.00  1.00  0.00  0.00  0.00  0.21  0.00
  YS02001770YS02001767    1.00   0.00  0.00  0.00  1.00  0.00  0.00  0.00  0.00  0.00
  YS02001774YS02001770    1.00   0.00  0.05  0.00  0.95  0.00  0.00  0.00  0.06  0.00
  YS02001779YS02001774    1.00   0.00  0.00  0.00  1.00  0.00  0.00  0.00  0.25  0.00
  YS02001649YS02001757    1.00   0.00  0.00  0.00  1.00  0.00  0.00  0.00  0.19  0.00
  YS02001767YS02001765    1.00   0.00  0.00  0.00  1.00  0.00  0.00  0.00  0.01  0.00
  YS02006561YS02001783    1.00   0.06  0.00  0.00  0.12  0.82  0.00  0.00  0.61  0.00
  YS02001783YS02001784    1.00   0.00  0.06  0.00  0.94  0.00  0.00  0.00  0.00  0.00
  YS02001784YS02001785    1.00   0.00  0.00  0.00  1.00  0.00  0.00  0.00  0.24  0.00
  YS02001788YS02001790    1.00   0.00  0.00  0.00  0.28  0.72  0.00  0.00  0.69  0.00
  YS02001790YS02001791    1.00   0.00  0.00  0.00  0.23  0.77  0.00  0.00  0.50  0.00
  YS02001791YS02001793    1.00   0.00  0.00  0.00  0.24  0.76  0.00  0.00  0.02  0.00
  YS02001910YS02001907    1.00   0.00  0.00  0.00  0.99  0.00  0.00  0.00  0.13  0.00
  YS02001786YS02001788    1.00   0.00  0.00  0.00  0.23  0.77  0.00  0.00  0.00  0.00
  YS02001915YS02001910    1.00   0.00  0.00  0.00  1.00  0.00  0.00  0.00  0.23  0.00
  YS02001918YS02001915    1.00   0.00  0.00  0.00  1.00  0.00  0.00  0.00  0.66  0.00
  YS02001923YS02001920    1.00   0.00  0.00  0.00  1.00  0.00  0.00  0.00  1.00  0.00
  YS02001926YS02001923    1.00   0.00  0.03  0.00  0.00  0.00  0.97  0.00  0.00  0.00
  YS02001929YS02001926    1.00   0.00  0.04  0.00  0.96  0.00  0.00  0.00  0.87  0.00
  YS02001920YS02001918    1.00   0.00  0.00  0.00  1.00  0.00  0.00  0.00  0.00  0.00
  YS02001629YS02163301    1.00   0.06  0.00  0.00  0.94  0.00  0.00  0.00  0.00  0.00
  YS02001619YS02001622    1.00   0.04  0.00  0.00  0.96  0.00  0.00  0.00  0.00  0.00
  YS02001622YS02001625    1.00   0.04  0.00  0.00  0.96  0.00  0.00  0.00  0.12  0.00
  YS02001625YS02001629    1.00   0.04  0.02  0.00  0.93  0.00  0.01  0.00  0.00  0.00
  YS02163301YS02001633    1.00   0.00  0.05  0.00  0.95  0.00  0.00  0.00  0.00  0.00
  YS02163601YS02164001    1.00   0.00  0.03  0.00  0.97  0.00  0.00  0.00  0.00  0.00
  YS02164001YS02001641    1.00   0.00  0.03  0.00  0.97  0.00  0.00  0.00  0.07  0.00
  YS02001641YS02001644    1.00   0.00  0.00  0.00  1.00  0.00  0.00  0.00  0.00  0.00
  YS02001647YS02001649    1.00   0.00  0.06  0.00  0.94  0.00  0.00  0.00  0.01  0.00
  YS02006553YS02006556    1.00   0.00  0.00  0.00  1.00  0.00  0.00  0.00  0.03  0.00
  YS02006556YS02006558    1.00   0.00  0.00  0.00  1.00  0.00  0.00  0.00  0.00  0.00
  YSB6556YSB1171          1.00   0.01  0.03  0.00  0.96  0.00  0.00  0.00  0.00  0.00
  YS02001907YS02006553    1.00   0.00  0.00  0.00  1.00  0.00  0.00  0.00  0.00  0.00
  YS02006558YS02006561    1.00   0.06  0.00  0.00  0.00  0.94  0.00  0.00  0.58  0.00
  YS02001633YS02163601    1.00   0.00  0.00  0.00  1.00  0.00  0.00  0.00  0.19  0.00
  YS02001644YS02001647    1.00   0.00  0.06  0.00  0.94  0.00  0.00  0.00  0.00  0.00
  YS02001745YS02001748    1.00   0.00  0.00  0.00  0.91  0.00  0.00  0.09  0.07  0.00
  YS02001748YS02001751    1.00   0.00  0.00  0.00  0.98  0.02  0.00  0.00  0.22  0.00
  YS02001751YS02001754    1.00   0.00  0.00  0.00  0.93  0.00  0.00  0.07  0.01  0.00
  YS02001754YS02001757    1.00   0.00  0.00  0.00  1.00  0.00  0.00  0.00  0.25  0.00
  YS02001882YS02001884    1.00   0.05  0.00  0.00  0.94  0.00  0.00  0.00  0.00  0.00
  YS02001884YS02001887    1.00   0.03  0.01  0.00  0.96  0.00  0.00  0.00  0.00  0.00
  YS02001890YS02001895    1.00   0.00  0.06  0.00  0.94  0.00  0.00  0.00  0.00  0.00
  YS02001895YS02001898    1.00   0.06  0.00  0.00  0.94  0.00  0.01  0.00  0.00  0.00
  YS02001898YS02001901    1.00   0.06  0.00  0.00  0.94  0.00  0.00  0.00  0.02  0.00
  YS02001901YS02001904    1.00   0.06  0.00  0.00  0.94  0.00  0.00  0.00  0.00  0.00
  YS02001904YS02001907    1.00   0.00  0.06  0.00  0.94  0.00  0.00  0.00  0.00  0.00
  YS02001887YS02001890    1.00   0.00  0.00  0.00  0.99  0.00  0.01  0.00  0.00  0.00
  YS02001652YS02001649    1.00   0.00  0.00  0.00  1.00  0.00  0.00  0.00  0.25  0.00
  YS02001655YS02001652    1.00   0.00  0.00  0.00  0.93  0.00  0.00  0.07  0.01  0.00
  YS02001658YS02001655    1.00   0.00  0.05  0.00  0.93  0.02  0.00  0.00  0.08  0.00
  YS02001661YS02001658    1.00   0.05  0.00  0.00  0.90  0.05  0.00  0.00  0.08  0.00
  YS02001664YS02001661    1.00   0.04  0.00  0.00  0.83  0.13  0.00  0.00  0.35  0.00
  YSB1154YSB6556          1.00   0.04  0.00  0.00  0.96  0.00  0.00  0.00  0.02  0.00
  YSB1174YSB1171          1.00   0.03  0.01  0.00  0.97  0.00  0.00  0.00  0.00  0.00
  YSB1171HS02004479       1.00   0.01  0.00  0.00  0.97  0.00  0.00  0.01  0.13  0.00
  HS02004881HS02006253    1.00   0.02  0.00  0.00  0.78  0.01  0.00  0.19  0.60  0.00
  YS02001793JiankangQianchi    1.00   0.00  0.00  0.00  0.45  0.55  0.00  0.00  0.21  0.00
  YS02001757CaochengTiaoxuchi    1.00   0.00  0.07  0.00  0.90  0.03  0.00  0.00  0.00  0.00
  WSF200WS02003060        1.00   0.00  0.02  0.00  0.66  0.32  0.00  0.00  0.34  0.00
  1                       1.00   0.00  0.00  0.00  0.00  1.00  0.00  0.00  0.34  0.00
  2                       1.00   0.56  0.00  0.00  0.00  0.44  0.00  0.00  0.07  0.00
  3                       1.00   0.13  0.00  0.00  0.00  0.87  0.00  0.00  0.29  0.00
  4                       1.00   1.00  0.00  0.00  0.00  0.00  0.00  0.00  0.00  0.00
  
  
  *************************
  Conduit Surcharge Summary
  *************************
  
  ----------------------------------------------------------------------------
                                                           Hours        Hours 
                         --------- Hours Full --------   Above Full   Capacity
  Conduit                Both Ends  Upstream  Dnstream   Normal Flow   Limited
  ----------------------------------------------------------------------------
  WS02006229WS02006228        1.96      2.26      1.96      4.63         1.96
  WS02006256WS02006235        5.71      5.71      7.21      2.50         0.01
  WS02006253WS02006251        0.01      0.01      0.19      0.01         0.01
  WS02006252WS02006251        1.83      1.83      2.71      2.49         0.01
  WS02006251WS02006249        0.01      0.01      0.01      1.85         0.01
  WS02006249WS02006248        0.01      0.01      0.01      4.41         0.01
  WS02006248WS02006247        0.01      0.01      0.01      0.01         0.01
  WS02006247WS02006245        0.01      0.17      0.01      4.76         0.01
  WS02006245WS02006243        0.02      0.02      0.30      0.06         0.01
  WS02006243WS02006242        0.55      0.55      1.65      0.01         0.01
  WS02006242WS02006240        0.69      0.69      2.06      2.75         0.01
  WS02006240WS02006239        0.82      0.82      0.89      0.05         0.01
  WS02006239WS02006238        1.91      1.91      2.02      0.06         0.02
  WS02006238WS02006235        1.86      1.86      2.33      0.01         0.01
  WS02006235WS02006234        0.71      0.71      1.62      5.71         0.01
  WS02006234WS02006232        0.86      0.86      2.41      0.01         0.01
  WS02006232WS02006231        0.28      0.28      2.41      0.01         0.01
  WS02006231WS02006230        0.16      0.16      0.32      5.72         0.01
  WS02006230WS02006229        3.30      4.29      3.30      5.82         3.30
  WS02006228WS02006109        2.11      2.74      2.11      5.17         2.11
  WS02006112WS02006115        0.01      0.01      0.74      0.01         0.01
  WS02006111WS02006112        0.01      0.01      4.74      0.01         0.01
  WS02006110WS02006113        0.01      0.01      2.47      0.01         0.01
  WS02006109WS02006110        0.54      0.54      2.75      0.54         0.01
  WS02004405WS02004406        0.01      0.01      0.01      0.65         0.01
  WS02004404WS02004405        0.01      0.12      0.01      5.69         0.01
  WS02004403WS02004404        0.01      0.01      0.12      0.01         0.01
  WS02003072WS02003073        0.01      0.01      0.01      5.31         0.01
  HS02004480HS02004478        0.01      0.01      0.01      0.11         0.01
  YS02001759YS02001757        5.49      5.49      5.53      0.01         0.01
  YS02001762YS02001759        5.47      5.47      5.49      0.01         0.02
  YS02001765YS02001762        5.43      5.43      5.47      0.01         0.01
  YS02001770YS02001767        5.27      5.29      5.29      0.01         0.77
  YS02001774YS02001770        5.25      5.25      5.47      0.01         0.01
  YS02001779YS02001774        4.77      4.77      5.47      0.01         0.01
  YS02001649YS02001757        5.47      5.47      5.53      0.01         0.01
  YS02001767YS02001765        5.29      5.29      5.43      0.01         0.02
  YS02001784YS02001785        0.01      0.01      0.01      1.00         0.01
  YS02001788YS02001790        0.01      0.01      0.78      0.01         0.01
  YS02001790YS02001791        0.78      0.78      1.11      0.01         0.01
  YS02001791YS02001793        1.11      1.11      1.36      0.01         0.01
  YS02001786YS02001788        0.01      0.01      0.01      0.39         0.01
  YS02001629YS02163301        5.25      5.25      5.30      0.01         0.01
  YS02001619YS02001622        4.15      4.16      4.22      0.01         0.01
  YS02001622YS02001625        4.22      4.22      5.15      0.01         0.01
  YS02001625YS02001629        4.19      4.19      5.15      0.01         0.01
  YS02163301YS02001633        5.30      5.30      5.45      0.01         0.01
  YS02163601YS02164001        5.43      5.43      5.47      0.01         0.01
  YS02164001YS02001641        5.43      5.43      5.46      0.01         0.02
  YS02001641YS02001644        5.46      5.46      5.46      0.01         1.08
  YS02001647YS02001649        5.10      5.10      5.47      0.01         0.01
  YS02006553YS02006556        0.01      0.01      0.02      0.01         0.01
  YS02006556YS02006558        0.01      0.01      0.20      0.01         0.01
  YS02001907YS02006553        0.99      0.99      1.19      0.01         0.01
  YS02006558YS02006561        0.01      0.01      0.01      0.83         0.01
  YS02001633YS02163601        5.41      5.41      5.47      0.01         0.01
  YS02001644YS02001647        5.10      5.10      5.46      0.01         0.01
  YS02001745YS02001748        0.01      0.01      2.67      0.01         0.01
  YS02001748YS02001751        3.48      3.48      4.23      0.01         0.01
  YS02001751YS02001754        4.23      4.23      4.95      0.01         0.01
  YS02001754YS02001757        5.11      5.11      5.53      0.01         0.01
  YS02001904YS02001907        0.01      0.01      0.01      0.01         0.01
  YS02001652YS02001649        5.14      5.14      5.47      0.01         0.01
  YS02001655YS02001652        4.31      4.31      5.07      0.01         0.01
  YS02001658YS02001655        2.49      2.49      4.32      0.01         0.01
  YS02001661YS02001658        0.01      0.01      2.49      0.01         0.01
  YS02001793JiankangQianchi        1.32      1.32      2.63      0.01         0.01
  YS02001757CaochengTiaoxuchi        3.99      3.99      5.53      0.01         0.01
  
  
  ***************
  Pumping Summary
  ***************
  
  ---------------------------------------------------------------------------------------------------------
                                                  Min       Avg       Max     Total     Power    % Time Off
                        Percent   Number of      Flow      Flow      Flow    Volume     Usage    Pump Curve
  Pump                 Utilized   Start-Ups       LPS       LPS       LPS  10^6 ltr     Kw-hr    Low   High
  ---------------------------------------------------------------------------------------------------------
  CC-Pump-1               61.53           4      0.00    151.96    200.00     2.639      5.87    0.0   14.6
  CC-Pump-2               57.27           4      0.00    155.62    200.00     2.486      5.63    0.0   15.7
  JK-Pump-1               85.12           6      0.00    161.03    300.00     2.963     34.17    0.0    0.0
  JK-Pump-2               80.83           7      0.00    146.58    300.00     2.637     35.59    0.0    0.0
  XR-Pump-1               85.09           8      0.00     71.87     95.00     1.681     14.60    0.0    0.0
  XR-Pump-2               76.60           7      0.00     76.07     95.00     1.596     15.64    0.0    0.0
  XR-Pump-3               76.60          10      0.00     65.76     95.00     1.454     14.04    0.0    0.0
  XR-Pump-4               85.09           8      0.00     72.78     95.00     1.738     15.72    0.0    0.0
  

  Analysis begun on:  Tue Dec 21 15:26:16 2021
  Analysis ended on:  Tue Dec 21 15:26:20 2021
  Total elapsed time: 00:00:04