
  EPA STORM WATER MANAGEMENT MODEL - VERSION 5.1 (Build 5.3.0.dev0)
  --------------------------------------------------------------

  WARNING 04: minimum elevation drop used for Conduit WS02004404WS02004405
  WARNING 03: negative offset ignored for Link YS02001904YS02001907
  
  *********************************************************
  NOTE: The summary statistics displayed in this report are
  based on results found at every computational time step,  
  not just on results from each reporting time step.
  *********************************************************
  
  ****************
  Analysis Options
  ****************
  Flow Units ............... LPS
  Process Models:
    Rainfall/Runoff ........ YES
    RDII ................... NO
    Snowmelt ............... NO
    Groundwater ............ NO
    Flow Routing ........... YES
    Ponding Allowed ........ NO
    Water Quality .......... NO
  Infiltration Method ...... HORTON
  Flow Routing Method ...... DYNWAVE
  Surcharge Method ......... EXTRAN
  Starting Date ............ 08/28/2015 08:00:00
  Ending Date .............. 08/28/2015 15:50:00
  Antecedent Dry Days ...... 8.0
  Report Time Step ......... 00:01:00
  Wet Time Step ............ 00:01:00
  Dry Time Step ............ 00:01:00
  Routing Time Step ........ 5.00 sec
  Variable Time Step ....... YES
  Maximum Trials ........... 8
  Number of Threads ........ 4
  Head Tolerance ........... 0.001500 m
  
  
  **************************        Volume         Depth
  Runoff Quantity Continuity     hectare-m            mm
  **************************     ---------       -------
  Total Precipitation ......         1.841         4.030
  Evaporation Loss .........         0.000         0.000
  Infiltration Loss ........         0.453         0.992
  Surface Runoff ...........         0.594         1.301
  Final Storage ............         0.794         1.738
  Continuity Error (%) .....        -0.017
  
  
  **************************        Volume        Volume
  Flow Routing Continuity        hectare-m      10^6 ltr
  **************************     ---------     ---------
  Dry Weather Inflow .......         0.616         6.165
  Wet Weather Inflow .......         0.594         5.936
  Groundwater Inflow .......         0.000         0.000
  RDII Inflow ..............         0.000         0.000
  External Inflow ..........         0.102         1.024
  External Outflow .........         1.363        13.628
  Flooding Loss ............         0.033         0.332
  Evaporation Loss .........         0.000         0.000
  Exfiltration Loss ........         0.000         0.000
  Initial Stored Volume ....         0.076         0.761
  Final Stored Volume ......         0.200         1.999
  Continuity Error (%) .....       -14.935
  
  
  *************************
  Highest Continuity Errors
  *************************
  Node JK-storage (-47.88%)
  Node HS02004842 (37.80%)
  Node YS02001884 (31.92%)
  Node YS02001774 (17.14%)
  Node YSB1171 (11.11%)
  
  
  ***************************
  Time-Step Critical Elements
  ***************************
  Link WS02006252WS02006251 (75.51%)
  Link 3 (14.72%)
  Link WS02006238WS02006235 (2.85%)
  Link WS02006280WS02006229 (2.61%)
  
  
  ********************************
  Highest Flow Instability Indexes
  ********************************
  Link WS02006113WS02006111 (46)
  Link WS02006111WS02006112 (26)
  Link YS02001754YS02001757 (3)
  Link YS02001751YS02001754 (2)
  Link YS02001762YS02001759 (2)
  
  
  *************************
  Routing Time Step Summary
  *************************
  Minimum Time Step           :     0.37 sec
  Average Time Step           :     0.94 sec
  Maximum Time Step           :     5.00 sec
  Percent in Steady State     :    -0.00
  Average Iterations per Step :     2.06
  Percent Not Converging      :     0.02
  
  
  ***************************
  Subcatchment Runoff Summary
  ***************************
  
  ------------------------------------------------------------------------------------------------------------------------------
                            Total      Total      Total      Total     Imperv       Perv      Total       Total     Peak  Runoff
                           Precip      Runon       Evap      Infil     Runoff     Runoff     Runoff      Runoff   Runoff   Coeff
  Subcatchment                 mm         mm         mm         mm         mm         mm         mm    10^6 ltr      LPS
  ------------------------------------------------------------------------------------------------------------------------------
  sub0                       4.03       0.00       0.00       0.28       2.48       0.00       2.48        0.00     0.64   0.616
  sub1                       4.03       0.00       0.00       0.44       2.33       0.00       2.33        0.02     3.44   0.579
  sub2                       4.03       0.00       0.00       1.49       1.63       0.00       1.63        0.02     3.06   0.406
  sub3                       4.03       0.00       0.00       1.49       1.60       0.00       1.60        0.04     6.36   0.398
  sub4                       4.03       0.00       0.00       0.44       2.21       0.00       2.21        0.05     7.20   0.548
  sub5                       4.03       0.00       0.00       0.28       2.44       0.00       2.44        0.03     6.12   0.605
  sub7                       4.03       0.00       0.00       0.36       2.41       0.00       2.41        0.01     2.13   0.599
  sub8                       4.03       0.00       0.00       0.36       2.40       0.00       2.40        0.02     3.78   0.597
  sub9                       4.03       0.00       0.00       0.36       2.40       0.00       2.40        0.01     2.80   0.596
  sub10                      4.03       0.00       0.00       0.32       2.42       0.00       2.42        0.03     6.09   0.600
  sub11                      4.03       0.00       0.00       0.32       2.43       0.00       2.43        0.03     7.10   0.604
  sub12                      4.03       0.00       0.00       0.52       2.32       0.00       2.32        0.02     5.96   0.575
  sub14                      4.03       0.00       0.00       0.36       2.40       0.00       2.40        0.02     5.48   0.596
  sub15                      4.03       0.00       0.00       1.21       1.84       0.00       1.84        0.03     7.45   0.457
  sub16                      4.03       0.00       0.00       1.33       1.78       0.00       1.78        0.02     5.25   0.442
  sub17                      4.03       0.00       0.00       1.29       1.81       0.00       1.81        0.02     4.25   0.448
  sub22                      4.03       0.00       0.00       1.73       1.51       0.00       1.51        0.10    24.28   0.374
  sub23                      4.03       0.00       0.00       1.49       1.67       0.00       1.67        0.08    20.65   0.414
  sub60                      4.03       0.00       0.00       0.48       1.41       0.00       1.41        0.43    36.57   0.350
  sub61                      4.03       0.00       0.00       0.69       1.56       0.00       1.56        0.48    47.19   0.388
  sub62                      4.03       0.00       0.00       0.32       1.66       0.00       1.66        0.51    47.93   0.412
  sub63                      4.03       0.00       0.00       1.17       1.41       0.00       1.41        0.43    44.25   0.350
  sub64                      4.03       0.00       0.00       0.60       1.34       0.00       1.34        0.41    34.64   0.334
  sub65                      4.03       0.00       0.00       0.52       1.36       0.00       1.36        0.42    35.05   0.337
  sub66                      4.03       0.00       0.00       1.17       1.19       0.00       1.19        0.36    32.10   0.295
  sub67                      4.03       0.00       0.00       0.32       1.88       0.00       1.88        0.58    62.22   0.468
  sub68                      4.03       0.00       0.00       0.56       1.68       0.00       1.68        0.52    52.35   0.417
  sub69                      4.03       0.00       0.00       0.60       1.88       0.00       1.88        0.44    51.68   0.465
  sub70                      4.03       1.91       0.00       2.02       2.13       0.00       2.13        0.49    37.56   0.358
  sub71                      4.03       0.00       0.00       0.32       1.57       0.00       1.57        0.37    33.12   0.389
  sub72                      4.03       0.00       0.00       0.28       1.03       0.00       1.03        0.21    14.68   0.255
  sub73                      4.03       2.07       0.00       2.07       2.05       0.00       2.05        0.48    32.13   0.336
  sub74                      4.03       0.00       0.00       3.02       0.57       0.00       0.57        0.23    28.67   0.142
  
  
  ******************
  Node Depth Summary
  ******************
  
  ---------------------------------------------------------------------------------
                                 Average  Maximum  Maximum  Time of Max    Reported
                                   Depth    Depth      HGL   Occurrence   Max Depth
  Node                 Type       Meters   Meters   Meters  days hr:min      Meters
  ---------------------------------------------------------------------------------
  WS02001211           JUNCTION     0.64     0.76     5.60     0  05:51        0.76
  WS02001212           JUNCTION     0.36     0.47     5.53     0  05:51        0.47
  WS02001213           JUNCTION     0.59     0.70     5.47     0  05:51        0.70
  WS02003069           JUNCTION     0.41     0.50     5.09     0  05:53        0.50
  WS02003072           JUNCTION     0.48     0.56     4.94     0  05:54        0.56
  WS02003073           JUNCTION     0.29     0.34     4.41     0  05:54        0.34
  WS02003060           JUNCTION     0.37     0.44     5.38     0  05:52        0.44
  WS02003066           JUNCTION     0.22     0.27     5.82     0  04:07        0.27
  WS02003059           JUNCTION     0.65     0.76     5.44     0  05:52        0.75
  WS02003067           JUNCTION     0.55     0.65     5.97     0  04:06        0.65
  WS02004401           JUNCTION     0.64     0.76     6.76     0  04:03        0.76
  WS02004402           JUNCTION     0.67     0.79     6.75     0  04:04        0.79
  WS02004403           JUNCTION     0.69     0.81     6.74     0  04:04        0.81
  WS02004404           JUNCTION     0.77     0.88     6.73     0  04:04        0.88
  WS02004406           JUNCTION     0.78     0.89     6.72     0  04:04        0.89
  WS02004409           JUNCTION     0.46     0.58     6.35     0  04:05        0.58
  WS02004410           JUNCTION     0.48     0.60     6.32     0  04:05        0.60
  WS02004411           JUNCTION     0.49     0.61     6.29     0  04:06        0.61
  WS02004412           JUNCTION     0.51     0.62     6.26     0  04:06        0.62
  WS02004413           JUNCTION     0.67     0.79     6.26     0  04:06        0.79
  WS02004405           JUNCTION     0.76     0.88     6.73     0  04:04        0.88
  WS02006109           JUNCTION     0.71     0.86     7.47     0  02:47        0.85
  WS02006110           JUNCTION     0.71     0.84     7.42     0  02:47        0.84
  WS02006111           JUNCTION     0.20     0.26     6.96     0  02:48        0.26
  WS02006112           JUNCTION     0.80     0.94     6.82     0  04:03        0.94
  WS02006113           JUNCTION     0.31     0.40     7.29     0  02:48        0.40
  WS02006115           JUNCTION     0.53     0.65     6.79     0  04:03        0.65
  WS02006116           JUNCTION     0.61     0.73     6.77     0  04:03        0.73
  WS02006230           JUNCTION     0.66     0.86     7.61     0  03:56        0.86
  WS02006231           JUNCTION     0.44     0.59     7.71     0  03:55        0.59
  WS02006232           JUNCTION     0.58     0.74     7.78     0  03:55        0.74
  WS02006234           JUNCTION     0.50     0.69     7.85     0  03:55        0.69
  WS02006235           JUNCTION     0.53     0.73     7.89     0  03:55        0.73
  WS02006238           JUNCTION     0.56     0.76     7.90     0  03:55        0.76
  WS02006240           JUNCTION     0.45     0.69     7.98     0  03:55        0.69
  WS02006242           JUNCTION     0.51     0.76     8.03     0  03:55        0.76
  WS02006243           JUNCTION     0.39     0.65     8.07     0  03:56        0.65
  WS02006245           JUNCTION     0.38     0.63     8.11     0  03:56        0.63
  WS02006247           JUNCTION     0.40     0.64     8.14     0  03:56        0.64
  WS02006248           JUNCTION     0.35     0.58     8.17     0  03:56        0.58
  WS02006249           JUNCTION     0.38     0.60     8.20     0  03:57        0.60
  WS02006239           JUNCTION     0.51     0.74     7.95     0  03:55        0.73
  WS02006251           JUNCTION     0.38     0.62     8.29     0  03:57        0.62
  WS02006252           JUNCTION     0.34     0.58     8.83     0  03:40        0.58
  WS02006253           JUNCTION     0.40     0.64     8.29     0  03:57        0.64
  WS02006256           JUNCTION     0.95     1.15     8.09     0  00:00        1.12
  WS02004138           JUNCTION     0.14     0.19     7.44     0  05:50        0.19
  WS02004407           JUNCTION     0.21     0.26     6.57     0  04:04        0.26
  WS02006228           JUNCTION     0.70     0.87     7.52     0  02:47        0.87
  WS02006229           JUNCTION     0.67     0.85     7.55     0  02:47        0.85
  WS02006280           JUNCTION     0.05     0.10     8.37     0  02:30        0.10
  WS02006284           JUNCTION     0.33     0.42     8.82     0  02:30        0.42
  WS02006287           JUNCTION     0.07     0.15     9.10     0  02:29        0.15
  WSF200               JUNCTION     0.20     0.27     5.50     0  04:10        0.27
  HS02004901           JUNCTION     0.10     0.18    10.00     0  02:27        0.18
  HS02004881           JUNCTION     0.00     0.01     9.04     0  02:29        0.01
  HS02004876           JUNCTION     0.03     0.08     9.11     0  02:30        0.08
  HS02004870           JUNCTION     0.01     0.02     9.31     0  02:29        0.02
  HS02004862           JUNCTION     0.01     0.03     9.41     0  02:31        0.03
  HS02004856           JUNCTION     0.07     0.09     9.52     0  02:30        0.09
  HS02004852           JUNCTION     0.00     0.02     9.53     0  02:31        0.02
  HS02004848           JUNCTION     0.00     0.02     9.62     0  02:28        0.02
  HS02004842           JUNCTION     0.32     0.35     9.62     0  02:28        0.35
  HS02004837           JUNCTION     0.02     0.04     9.62     0  02:28        0.04
  HS02004830           JUNCTION     0.03     0.05     9.52     0  02:29        0.05
  HS02004824           JUNCTION     0.02     0.03     9.43     0  02:33        0.03
  HS02004817           JUNCTION     0.41     0.48     9.33     0  02:30        0.48
  HS02004807           JUNCTION     0.10     0.15     9.32     0  02:30        0.15
  HS02004802           JUNCTION     0.14     0.19     9.32     0  02:30        0.19
  HS02004799           JUNCTION     0.09     0.18     9.39     0  02:27        0.18
  HS02004792           JUNCTION     0.02     0.06     9.58     0  02:26        0.06
  HS02004788           JUNCTION     0.01     0.05     9.94     0  02:28        0.05
  HS02004785           JUNCTION     0.03     0.09     9.99     0  02:28        0.09
  HS02004777           JUNCTION     0.12     0.20    10.00     0  02:28        0.20
  HS02004770           JUNCTION     0.09     0.17    10.00     0  02:27        0.17
  HS02004480           JUNCTION     0.05     0.14     9.38     0  02:28        0.14
  HS02004479           JUNCTION     0.09     0.17     9.38     0  02:28        0.17
  HS02004478           JUNCTION     0.04     0.09     9.31     0  02:29        0.09
  YS02001745           JUNCTION     0.06     0.08     7.60     0  03:01        0.08
  YS02001748           JUNCTION     0.07     0.12     7.19     0  03:33        0.11
  YS02001751           JUNCTION     0.19     0.32     7.20     0  03:33        0.32
  YS02001754           JUNCTION     0.43     0.61     7.22     0  03:40        0.61
  YS02001762           JUNCTION     0.63     0.79     7.19     0  03:36        0.79
  YS02001765           JUNCTION     0.58     0.75     7.20     0  03:36        0.74
  YS02001767           JUNCTION     0.55     0.71     7.19     0  03:36        0.70
  YS02001770           JUNCTION     0.54     0.69     7.19     0  03:32        0.69
  YS02001774           JUNCTION     0.61     0.77     7.19     0  03:30        0.77
  YS02001779           JUNCTION     0.36     0.51     7.19     0  03:33        0.50
  YS02001882           JUNCTION     0.22     0.32     7.04     0  03:02        0.32
  YS02001884           JUNCTION     0.31     0.42     7.04     0  03:02        0.42
  YS02001759           JUNCTION     0.66     0.83     7.19     0  03:32        0.83
  YS02001887           JUNCTION     0.39     0.50     7.04     0  03:02        0.50
  YS02001890           JUNCTION     0.42     0.53     7.03     0  03:02        0.53
  YS02001898           JUNCTION     0.19     0.28     7.02     0  03:02        0.28
  YS02001901           JUNCTION     0.31     0.41     7.02     0  03:03        0.41
  YS02001904           JUNCTION     0.29     0.39     7.02     0  03:03        0.39
  YS02001907           JUNCTION     0.61     0.73     7.02     0  03:02        0.73
  YS02001910           JUNCTION     0.40     0.51     7.02     0  03:03        0.51
  YS02001915           JUNCTION     0.21     0.30     7.02     0  03:03        0.30
  YS02001918           JUNCTION     0.06     0.07     7.14     0  03:05        0.07
  YS02001619           JUNCTION     0.15     0.26     7.19     0  03:32        0.26
  YS02001629           JUNCTION     0.49     0.64     7.19     0  03:29        0.64
  YS02001641           JUNCTION     0.60     0.75     7.19     0  03:33        0.75
  YS02001644           JUNCTION     0.60     0.76     7.19     0  03:31        0.76
  YS02001652           JUNCTION     0.45     0.60     7.20     0  03:31        0.60
  YS02001655           JUNCTION     0.21     0.34     7.19     0  03:31        0.34
  YS02001920           JUNCTION     0.14     0.16     7.17     0  03:04        0.16
  YS02001923           JUNCTION     0.05     0.06     7.32     0  03:03        0.06
  YS02001926           JUNCTION     0.11     0.13     7.58     0  03:03        0.13
  YS02001929           JUNCTION     0.05     0.06     7.75     0  03:01        0.06
  YS02001658           JUNCTION     0.06     0.09     7.24     0  03:01        0.09
  YS02001661           JUNCTION     0.12     0.16     7.57     0  03:01        0.16
  YS02001664           JUNCTION     0.05     0.08     8.01     0  03:01        0.08
  YS02001622           JUNCTION     0.17     0.29     7.19     0  03:34        0.29
  YS02001633           JUNCTION     0.58     0.74     7.19     0  03:30        0.74
  YS02001649           JUNCTION     0.64     0.80     7.19     0  03:34        0.80
  YS02001757           JUNCTION     0.76     0.94     7.20     0  03:37        0.93
  YS02001895           JUNCTION     0.19     0.28     7.03     0  03:03        0.28
  YS02001625           JUNCTION     0.45     0.59     7.19     0  03:34        0.59
  YS02163301           JUNCTION     0.52     0.67     7.19     0  03:33        0.67
  YS02163601           JUNCTION     0.63     0.80     7.19     0  03:36        0.79
  YS02164001           JUNCTION     0.58     0.73     7.19     0  03:33        0.73
  YS02001647           JUNCTION     0.43     0.58     7.19     0  03:35        0.58
  YSB1154              JUNCTION     0.23     0.32     9.38     0  02:28        0.32
  YSB6556              JUNCTION     0.12     0.21     9.38     0  02:27        0.21
  YSB1174              JUNCTION     0.18     0.27     9.38     0  02:28        0.27
  YSB1171              JUNCTION     0.38     0.47     9.38     0  02:28        0.47
  YS02006553           JUNCTION     0.62     0.73     7.02     0  03:03        0.73
  YS02006561           JUNCTION     0.10     0.16     6.82     0  03:03        0.16
  YS02006556           JUNCTION     0.59     0.71     7.02     0  03:03        0.71
  YS02006558           JUNCTION     0.64     0.75     7.02     0  03:03        0.75
  YS02001783           JUNCTION     0.17     0.27     6.41     0  03:03        0.27
  YS02001784           JUNCTION     0.21     0.31     6.37     0  03:03        0.31
  YS02001786           JUNCTION     0.18     0.26     6.29     0  03:04        0.26
  YS02001788           JUNCTION     0.12     0.19     6.17     0  03:04        0.19
  YS02001790           JUNCTION     0.15     0.23     5.87     0  03:04        0.23
  YS02001791           JUNCTION     0.10     0.15     5.62     0  03:05        0.15
  YS02001793           JUNCTION     0.07     0.10     4.93     0  03:05        0.10
  WS02004139           JUNCTION     0.58     0.71     5.62     0  05:50        0.71
  WSC                  OUTFALL      0.28     0.34     1.01     0  05:55        0.34
  3                    OUTFALL      0.04     0.13     6.13     0  00:00        0.12
  4                    OUTFALL      0.01     0.10     7.10     0  03:57        0.10
  5                    OUTFALL      0.00     0.00     5.00     0  00:00        0.00
  JK-storage           STORAGE      0.08     3.00     3.80     0  00:00        2.70
  CC-storage           STORAGE      0.01     0.11     7.11     0  03:31        0.11
  XR-storage           STORAGE      6.73     7.72     5.72     0  00:56        7.72
  
  
  *******************
  Node Inflow Summary
  *******************
  
  -------------------------------------------------------------------------------------------------
                                  Maximum  Maximum                  Lateral       Total        Flow
                                  Lateral    Total  Time of Max      Inflow      Inflow     Balance
                                   Inflow   Inflow   Occurrence      Volume      Volume       Error
  Node                 Type           LPS      LPS  days hr:min    10^6 ltr    10^6 ltr     Percent
  -------------------------------------------------------------------------------------------------
  WS02001211           JUNCTION      7.35   380.56     0  05:50       0.207        6.06       0.560
  WS02001212           JUNCTION      0.00   375.48     0  05:51           0        6.02       0.288
  WS02001213           JUNCTION      0.00   373.32     0  05:51           0        6.01       0.305
  WS02003069           JUNCTION      0.32   723.03     0  05:53     0.00902        12.4       0.186
  WS02003072           JUNCTION      0.00   722.57     0  05:53           0        12.4       0.239
  WS02003073           JUNCTION      1.82   724.08     0  05:54      0.0514        12.4       0.262
  WS02003060           JUNCTION     16.53   722.81     0  05:52       0.466        12.4       0.178
  WS02003066           JUNCTION      0.00   416.94     0  04:06           0        6.02       0.060
  WS02003059           JUNCTION      0.00   371.46     0  05:51           0           6       0.592
  WS02003067           JUNCTION      0.00   416.93     0  04:06           0        6.03       0.131
  WS02004401           JUNCTION      0.00   417.32     0  03:58           0        6.23       0.293
  WS02004402           JUNCTION      0.00   417.17     0  04:02           0        6.21       0.281
  WS02004403           JUNCTION      0.00   417.13     0  04:02           0        6.19       0.260
  WS02004404           JUNCTION      0.16   417.31     0  04:04     0.00457        6.18       0.201
  WS02004406           JUNCTION      0.00   417.32     0  04:04           0        6.15       0.491
  WS02004409           JUNCTION      0.00   417.27     0  04:04           0        6.12       0.204
  WS02004410           JUNCTION      0.00   417.17     0  04:05           0         6.1       0.237
  WS02004411           JUNCTION      0.00   417.08     0  04:05           0        6.09       0.249
  WS02004412           JUNCTION      0.00   417.01     0  04:06           0        6.07       0.278
  WS02004413           JUNCTION      0.00   416.99     0  04:06           0        6.06       0.424
  WS02004405           JUNCTION      0.04   417.34     0  04:04     0.00107        6.17       0.300
  WS02006109           JUNCTION      1.23   432.94     0  02:47      0.0347        6.32       0.302
  WS02006110           JUNCTION      0.00   432.93     0  02:47           0         6.3       0.268
  WS02006111           JUNCTION      0.00   443.78     0  02:48           0        6.27       0.052
  WS02006112           JUNCTION      4.25   436.37     0  02:48      0.0155        6.29       0.409
  WS02006113           JUNCTION      0.00   432.76     0  02:47           0        6.28       0.119
  WS02006115           JUNCTION      0.00   430.22     0  02:48           0        6.26       0.256
  WS02006116           JUNCTION      0.00   422.98     0  02:49           0        6.24       0.248
  WS02006230           JUNCTION     10.28   395.22     0  03:55        0.29         5.7       0.167
  WS02006231           JUNCTION      0.00   385.46     0  03:55           0        5.42       0.205
  WS02006232           JUNCTION      0.00   385.45     0  03:55           0        5.44       0.251
  WS02006234           JUNCTION      0.00   386.03     0  03:55           0        5.44       0.096
  WS02006235           JUNCTION      0.00   386.17     0  03:55           0        5.48       0.164
  WS02006238           JUNCTION      0.00   342.64     0  03:50           0        3.77       0.153
  WS02006240           JUNCTION      0.00   336.33     0  03:50           0        3.75       0.216
  WS02006242           JUNCTION      0.00   334.18     0  03:50           0        3.75       0.280
  WS02006243           JUNCTION      0.00   331.63     0  03:51           0        3.74      -0.076
  WS02006245           JUNCTION      0.00   330.93     0  03:51           0        3.75       0.184
  WS02006247           JUNCTION      0.00   330.82     0  03:40           0        3.75       0.133
  WS02006248           JUNCTION      0.00   335.08     0  03:40           0        3.75       0.063
  WS02006249           JUNCTION      0.00   405.11     0  03:51           0        3.97       0.210
  WS02006239           JUNCTION      0.00   341.34     0  03:50           0        3.76       0.196
  WS02006251           JUNCTION      0.08   404.16     0  03:51     0.00217        4.04       0.158
  WS02006252           JUNCTION      0.00   400.00     0  03:40           0        3.89       0.009
  WS02006253           JUNCTION      0.64    47.40     0  05:00     0.00201       0.153       1.592
  WS02006256           JUNCTION      0.00   332.92     0  03:55           0        2.78       0.094
  WS02004138           JUNCTION      0.00   379.99     0  05:20           0        5.87       0.031
  WS02004407           JUNCTION      0.00   417.29     0  04:04           0        6.12       0.094
  WS02006228           JUNCTION      0.00   431.73     0  02:47           0         6.3       0.204
  WS02006229           JUNCTION      0.00   431.81     0  02:46           0        6.31       0.165
  WS02006280           JUNCTION      0.00   103.06     0  02:30           0       0.614       0.012
  WS02006284           JUNCTION      0.10   103.06     0  02:29      0.0027       0.615       0.189
  WS02006287           JUNCTION      0.00   102.97     0  02:29           0       0.613       0.113
  WSF200               JUNCTION      0.00   416.94     0  04:07           0        6.02       0.053
  HS02004901           JUNCTION      5.25     5.25     0  02:18      0.0186      0.0188      10.317
  HS02004881           JUNCTION      2.13    17.99     0  02:29     0.00813      0.0838       0.207
  HS02004876           JUNCTION      3.44    16.09     0  02:28      0.0155      0.0762       0.686
  HS02004870           JUNCTION      3.78    12.71     0  02:28      0.0154      0.0608       0.175
  HS02004862           JUNCTION      3.26     9.15     0  02:29      0.0209      0.0456       0.367
  HS02004856           JUNCTION      2.80     5.91     0  02:28      0.0115      0.0262       5.790
  HS02004852           JUNCTION      0.00     3.26     0  02:29           0      0.0147       0.327
  HS02004848           JUNCTION      6.36     6.36     0  02:33      0.0361      0.0361       0.118
  HS02004842           JUNCTION      0.00     4.47     0  00:03           0      0.0344      60.761
  HS02004837           JUNCTION     12.44    15.39     0  02:27       0.206       0.227       0.360
  HS02004830           JUNCTION      0.15    15.54     0  02:28     0.00423       0.217       0.570
  HS02004824           JUNCTION      7.25    22.69     0  02:33      0.0474       0.264       0.205
  HS02004817           JUNCTION      0.60    23.29     0  02:33      0.0169        0.28       6.324
  HS02004807           JUNCTION      7.10    29.82     0  02:30      0.0283       0.292       1.470
  HS02004802           JUNCTION      0.00    29.89     0  02:32           0       0.287       1.429
  HS02004799           JUNCTION      5.48    62.31     0  02:26      0.0228       0.297       0.761
  HS02004792           JUNCTION     24.56    56.94     0  02:26       0.103       0.274       0.153
  HS02004788           JUNCTION      9.12    33.38     0  02:27      0.0788       0.172       0.229
  HS02004785           JUNCTION      0.15    24.50     0  02:26     0.00423      0.0957       0.502
  HS02004777           JUNCTION      0.03    24.64     0  02:24    0.000846      0.0958       5.701
  HS02004770           JUNCTION     20.65    25.26     0  02:21      0.0796      0.0966       3.317
  HS02004480           JUNCTION      0.00    73.39     0  02:28           0       0.342       0.196
  HS02004479           JUNCTION      0.00    11.25     0  02:29           0      0.0575       1.283
  HS02004478           JUNCTION      0.00   102.97     0  02:29           0       0.614       0.109
  YS02001745           JUNCTION     36.57    36.57     0  03:01       0.427       0.427       0.080
  YS02001748           JUNCTION      0.04    36.59     0  03:01     0.00127       0.428       0.040
  YS02001751           JUNCTION      0.01    62.16     0  04:39     0.00031       0.542       0.280
  YS02001754           JUNCTION      0.26   198.23     0  04:47     0.00733       0.957       1.108
  YS02001762           JUNCTION      0.00    51.81     0  03:05           0       0.564       2.460
  YS02001765           JUNCTION      0.00    73.22     0  04:42           0       0.553       2.650
  YS02001767           JUNCTION      0.54    61.94     0  04:58      0.0151       0.557       3.509
  YS02001770           JUNCTION     48.09    52.64     0  02:55       0.514       0.535       3.108
  YS02001774           JUNCTION      0.00    24.23     0  02:36           0      0.0848      20.687
  YS02001779           JUNCTION      0.01    11.35     0  04:44    0.000141      0.0498      11.309
  YS02001882           JUNCTION      0.00     1.94     0  02:22           0      0.0033      75.049
  YS02001884           JUNCTION      0.00     5.63     0  02:11           0      0.0135      46.884
  YS02001759           JUNCTION     47.23   104.00     0  03:50       0.483        1.02       1.557
  YS02001887           JUNCTION     62.67    62.67     0  03:01       0.594         0.6       1.104
  YS02001890           JUNCTION      0.00    62.19     0  03:00           0       0.582       1.255
  YS02001898           JUNCTION      0.00    61.82     0  03:01           0       0.571       0.318
  YS02001901           JUNCTION      0.00    61.94     0  03:03           0       0.571       0.867
  YS02001904           JUNCTION      0.00    61.68     0  03:03           0       0.571       0.811
  YS02001907           JUNCTION      0.00   111.82     0  03:03           0        1.21       1.767
  YS02001910           JUNCTION      0.00    50.42     0  03:02           0       0.654       1.458
  YS02001915           JUNCTION     33.14    50.37     0  03:01        0.37       0.658       0.587
  YS02001918           JUNCTION      0.00    17.54     0  03:04           0       0.289       0.279
  YS02001619           JUNCTION     32.10    32.10     0  03:01       0.364       0.364       0.147
  YS02001629           JUNCTION      0.00    34.20     0  03:10           0       0.348       1.584
  YS02001641           JUNCTION      0.00    68.87     0  03:44           0       0.736       1.723
  YS02001644           JUNCTION     34.68   100.53     0  03:11        0.41        1.13       1.364
  YS02001652           JUNCTION      0.00    60.47     0  04:35           0       0.487       1.864
  YS02001655           JUNCTION      0.15    44.36     0  03:01     0.00434       0.438       0.703
  YS02001920           JUNCTION      2.87    17.56     0  03:03      0.0809        0.29       0.578
  YS02001923           JUNCTION      0.04    14.69     0  03:03     0.00106        0.21       0.103
  YS02001926           JUNCTION      0.05    14.72     0  03:01     0.00147        0.21       0.747
  YS02001929           JUNCTION     14.68    14.68     0  03:01       0.209       0.209       0.097
  YS02001658           JUNCTION      0.00    44.22     0  03:01           0       0.426       0.047
  YS02001661           JUNCTION      0.00    44.24     0  03:01           0       0.427       0.169
  YS02001664           JUNCTION     44.25    44.25     0  03:01       0.427       0.427       0.034
  YS02001622           JUNCTION      0.00    32.80     0  02:53           0       0.363       0.674
  YS02001633           JUNCTION     35.25    69.13     0  02:44       0.423       0.759       2.429
  YS02001649           JUNCTION      0.00   156.09     0  03:45           0        1.56       1.507
  YS02001757           JUNCTION      0.00   355.25     0  04:27           0        3.22       2.148
  YS02001895           JUNCTION      0.00    61.93     0  03:01           0       0.574       0.533
  YS02001625           JUNCTION      0.00    34.44     0  02:53           0       0.361       4.151
  YS02163301           JUNCTION      0.00    34.88     0  02:44           0       0.349       3.543
  YS02163601           JUNCTION      0.11    68.09     0  03:11      0.0031       0.739       2.626
  YS02164001           JUNCTION      0.00    68.90     0  03:11           0        0.73       1.596
  YS02001647           JUNCTION      0.00   101.07     0  03:10           0         1.1       1.085
  YSB1154              JUNCTION      6.12     6.12     0  02:25      0.0276       0.029       5.238
  YSB6556              JUNCTION      0.00     6.08     0  02:27           0      0.0301       4.316
  YSB1174              JUNCTION      5.96     5.96     0  02:17      0.0202      0.0212       6.437
  YSB1171              JUNCTION      0.00    11.27     0  02:27           0      0.0569      12.499
  YS02006553           JUNCTION      0.00   111.94     0  03:05           0         1.2       1.153
  YS02006561           JUNCTION      0.00   163.77     0  03:03           0         1.7       0.030
  YS02006556           JUNCTION      0.00   112.10     0  03:05           0         1.2       0.825
  YS02006558           JUNCTION     53.23   163.80     0  03:03       0.541        1.72       0.248
  YS02001783           JUNCTION      0.00   163.77     0  03:03           0         1.7       0.070
  YS02001784           JUNCTION      1.06   164.82     0  03:03      0.0299        1.73       0.118
  YS02001786           JUNCTION      0.06   164.86     0  03:04     0.00159        1.72       0.115
  YS02001788           JUNCTION      0.07   164.92     0  03:04       0.002        1.72       0.064
  YS02001790           JUNCTION      0.15   165.07     0  03:04     0.00437        1.73       0.083
  YS02001791           JUNCTION      0.00   165.05     0  03:04           0        1.73       0.040
  YS02001793           JUNCTION      0.00   165.05     0  03:05           0        1.73       0.016
  WS02004139           JUNCTION      0.32   379.56     0  05:50     0.00905        5.88       0.466
  WSC                  OUTFALL       0.00   723.52     0  05:55           0        12.4       0.000
  3                    OUTFALL       0.00   250.55     0  00:00           0        1.03       0.000
  4                    OUTFALL       0.00    96.42     0  03:57           0       0.209       0.000
  5                    OUTFALL       0.00     0.00     0  00:00           0           0       0.000 ltr
  JK-storage           STORAGE       0.00   165.05     0  03:05           0        1.88     -32.378
  CC-storage           STORAGE       0.00   260.92     0  03:11           0        2.74     -29.499
  XR-storage           STORAGE     260.45   260.45     0  03:01        6.35        6.95      -0.003
  
  
  **********************
  Node Surcharge Summary
  **********************
  
  Surcharging occurs when water rises above the top of the highest conduit.
  ---------------------------------------------------------------------
                                               Max. Height   Min. Depth
                                   Hours       Above Crown    Below Rim
  Node                 Type      Surcharged         Meters       Meters
  ---------------------------------------------------------------------
  WS02006109           JUNCTION        0.85          0.035        1.785
  WS02006232           JUNCTION        1.29          0.040        1.440
  WS02006235           JUNCTION        0.31          0.020        1.270
  WS02006238           JUNCTION        0.66          0.039        1.391
  WS02006242           JUNCTION        0.48          0.032        0.788
  WS02006252           JUNCTION        1.65          0.184        0.916
  WS02006228           JUNCTION        0.71          0.038        2.162
  
  
  *********************
  Node Flooding Summary
  *********************
  
  Flooding refers to all water that overflows a node, whether it ponds or not.
  --------------------------------------------------------------------------
                                                             Total   Maximum
                                 Maximum   Time of Max       Flood    Ponded
                        Hours       Rate    Occurrence      Volume     Depth
  Node                 Flooded       LPS   days hr:min    10^6 ltr    Meters
  --------------------------------------------------------------------------
  XR-storage              1.19    161.21      0  03:10       0.332     0.000
  
  
  **********************
  Storage Volume Summary
  **********************
  
  --------------------------------------------------------------------------------------------------
                         Average     Avg  Evap Exfil       Maximum     Max    Time of Max    Maximum
                          Volume    Pcnt  Pcnt  Pcnt        Volume    Pcnt     Occurrence    Outflow
  Storage Unit           1000 m3    Full  Loss  Loss       1000 m3    Full    days hr:min        LPS
  --------------------------------------------------------------------------------------------------
  JK-storage               0.004       1     0     0         0.151      52       0  00:00     332.92
  CC-storage               0.033       0     0     0         0.305       2       0  03:31     400.00
  XR-storage               0.807      87     0     0         0.926     100       0  00:56     379.99
  
  
  ***********************
  Outfall Loading Summary
  ***********************
  
  -----------------------------------------------------------
                         Flow       Avg       Max       Total
                         Freq      Flow      Flow      Volume
  Outfall Node           Pcnt       LPS       LPS    10^6 ltr
  -----------------------------------------------------------
  WSC                   99.99    530.90    723.52      12.389
  3                     65.67     79.46    250.55       1.031
  4                     27.18     36.93     96.42       0.209
  5                      0.00      0.00      0.00       0.000
  -----------------------------------------------------------
  System                48.21    647.29    973.14      13.628
  
  
  ********************
  Link Flow Summary
  ********************
  
  -----------------------------------------------------------------------------
                                 Maximum  Time of Max   Maximum    Max/    Max/
                                  |Flow|   Occurrence   |Veloc|    Full    Full
  Link                 Type          LPS  days hr:min     m/sec    Flow   Depth
  -----------------------------------------------------------------------------
  WS02003066WSF200     CONDUIT    416.94     0  04:07      2.62    0.07    0.20
  WS02006287WS02006284 CONDUIT    102.96     0  02:29      1.27    0.05    0.16
  WS02006284WS02006280 CONDUIT    103.06     0  02:30      1.52    0.04    0.14
  WS02006280WS02006229 CONDUIT    103.06     0  02:30      2.44    0.02    0.10
  WS02006229WS02006228 CONDUIT    431.73     0  02:47      0.86    1.43    1.00
  WS02006256WS02006235 CONDUIT    166.25     0  00:01      2.58    1.76    1.00
  WS02006253WS02006251 CONDUIT     49.68     0  05:02      0.37    0.15    0.90
  WS02006252WS02006251 CONDUIT    400.11     0  03:40      3.18    1.47    1.00
  WS02006251WS02006249 CONDUIT    405.11     0  03:51      1.16    1.17    0.87
  WS02006249WS02006248 CONDUIT    335.08     0  03:40      1.12    1.84    0.83
  WS02006248WS02006247 CONDUIT    330.82     0  03:40      1.09    0.72    0.86
  WS02006247WS02006245 CONDUIT    330.93     0  03:51      1.05    2.62    0.90
  WS02006245WS02006243 CONDUIT    331.63     0  03:51      1.09    0.98    0.91
  WS02006243WS02006242 CONDUIT    334.18     0  03:50      0.92    0.71    0.97
  WS02006242WS02006240 CONDUIT    336.33     0  03:50      0.89    1.34    0.99
  WS02006240WS02006239 CONDUIT    341.34     0  03:50      0.93    1.07    0.99
  WS02006239WS02006238 CONDUIT    342.64     0  03:50      0.90    1.10    1.00
  WS02006238WS02006235 CONDUIT    342.47     0  03:50      1.25    0.76    1.00
  WS02006235WS02006234 CONDUIT    386.03     0  03:55      1.01    4.07    0.98
  WS02006234WS02006232 CONDUIT    385.45     0  03:55      1.13    0.78    0.99
  WS02006232WS02006231 CONDUIT    385.46     0  03:55      1.05    0.81    0.91
  WS02006231WS02006230 CONDUIT    384.94     0  03:55      1.31    5.84    0.76
  WS02006230WS02006229 CONDUIT    394.87     0  03:56      1.03    8.79    1.00
  WS02006228WS02006109 CONDUIT    431.71     0  02:47      0.86    1.89    1.00
  WS02006116WS02004401 CONDUIT    417.32     0  03:58      0.73    0.58    0.74
  WS02006115WS02006116 CONDUIT    422.98     0  02:49      0.81    0.54    0.66
  WS02006113WS02006111 CONDUIT    443.78     0  02:48      2.28    0.53    0.41
  WS02006112WS02006115 CONDUIT    430.22     0  02:48      0.67    0.25    0.79
  WS02006111WS02006112 CONDUIT    433.78     0  02:48      1.32    0.21    0.65
  WS02006110WS02006113 CONDUIT    432.76     0  02:47      1.07    0.39    0.75
  WS02006109WS02006110 CONDUIT    432.93     0  02:47      0.88    0.83    0.96
  WS02004411WS02004412 CONDUIT    417.01     0  04:06      0.82    0.59    0.62
  WS02004401WS02004402 CONDUIT    417.17     0  04:02      0.77    0.50    0.77
  WS02004413WS02003067 CONDUIT    416.93     0  04:06      0.97    0.18    0.54
  WS02004412WS02004413 CONDUIT    416.99     0  04:06      0.70    0.28    0.71
  WS02004410WS02004411 CONDUIT    417.08     0  04:05      0.84    0.57    0.60
  WS02004409WS02004410 CONDUIT    417.17     0  04:05      0.89    0.54    0.59
  WS02004407WS02004409 CONDUIT    417.27     0  04:04      1.38    0.15    0.42
  WS02004406WS02004407 CONDUIT    417.29     0  04:04      0.90    0.19    0.57
  WS02004405WS02004406 CONDUIT    417.32     0  04:04      0.66    0.82    0.88
  WS02004404WS02004405 CONDUIT    417.30     0  04:04      0.84    4.09    0.88
  WS02004403WS02004404 CONDUIT    417.14     0  04:04      0.74    0.30    0.85
  WS02004402WS02004403 CONDUIT    417.13     0  04:02      0.75    0.60    0.80
  WS02004139WS02001211 CONDUIT    373.22     0  05:50      0.58    0.47    0.57
  WS02004138WS02004139 CONDUIT    379.24     0  05:50      1.27    0.08    0.42
  WS02003067WS02003066 CONDUIT    416.94     0  04:06      1.05    0.13    0.38
  WS02001213WS02003059 CONDUIT    371.46     0  05:51      0.61    0.61    0.72
  WS02001212WS02001213 CONDUIT    373.32     0  05:51      1.23    0.58    0.43
  WS02001211WS02001212 CONDUIT    375.48     0  05:51      0.75    0.29    0.62
  WS02003072WS02003073 CONDUIT    722.26     0  05:54      1.57    1.56    0.43
  WS02003069WS02003072 CONDUIT    722.57     0  05:53      1.49    0.35    0.44
  WS02003060WS02003069 CONDUIT    722.71     0  05:53      1.75    0.28    0.39
  WS02003059WS02003060 CONDUIT    369.58     0  05:52      0.82    0.24    0.60
  HS02004901HS02004770 CONDUIT      4.80     0  02:25      0.03    0.02    0.25
  HS02004876HS02004881 CONDUIT     16.05     0  02:30      0.34    0.17    0.07
  HS02004870HS02004876 CONDUIT     12.70     0  02:29      0.24    0.01    0.08
  HS02004842HS02004848 CONDUIT      3.25     0  02:42      0.02    0.00    0.26
  HS02004837HS02004842 CONDUIT      4.47     0  00:03      0.41    0.00    0.27
  HS02004830HS02004837 CONDUIT     15.39     0  02:28      0.37    0.02    0.06
  HS02004824HS02004830 CONDUIT     15.54     0  02:29      0.41    0.02    0.05
  HS02004817HS02004824 CONDUIT     22.69     0  02:33      0.17    0.01    0.36
  HS02004770HS02004777 CONDUIT     24.61     0  02:24      0.14    0.04    0.26
  HS02004799HS02004480 CONDUIT     62.22     0  02:27      0.40    0.08    0.22
  HS02004792HS02004799 CONDUIT     56.91     0  02:26      0.47    0.03    0.17
  HS02004788HS02004792 CONDUIT     33.36     0  02:28      0.64    0.02    0.07
  HS02004785HS02004788 CONDUIT     24.42     0  02:28      0.36    0.18    0.10
  HS02004777HS02004785 CONDUIT     24.35     0  02:26      0.17    0.03    0.21
  HS02004480HS02004478 CONDUIT     73.36     0  02:28      0.71    0.31    0.15
  HS02004479HS02004480 CONDUIT     11.32     0  02:30      0.15    0.01    0.22
  HS02004862HS02004870 CONDUIT      9.13     0  02:30      0.34    0.01    0.04
  HS02004848HS02004852 CONDUIT      3.26     0  02:29      0.22    0.00    0.02
  HS02004856HS02004862 CONDUIT      5.89     0  02:30      0.24    0.01    0.03
  HS02004852HS02004856 CONDUIT      3.24     0  02:31      0.06    0.00    0.08
  HS02004802HS02004478 CONDUIT     30.01     0  02:34      0.22    0.03    0.20
  HS02004478WS02006287 CONDUIT    102.97     0  02:29      0.96    0.03    0.12
  HS02004817HS02004807 CONDUIT     23.48     0  02:36      0.07    0.01    0.45
  HS02004807HS02004802 CONDUIT     29.89     0  02:32      0.19    0.06    0.24
  YS02001759YS02001757 CONDUIT     98.70     0  03:05      0.14    0.07    0.88
  YS02001762YS02001759 CONDUIT     74.67     0  04:36      0.17    0.09    0.81
  YS02001765YS02001762 CONDUIT     51.81     0  03:05      0.22    0.05    0.77
  YS02001770YS02001767 CONDUIT     51.90     0  03:05      0.28    0.21    0.70
  YS02001774YS02001770 CONDUIT     24.23     0  02:36      0.12    0.02    0.72
  YS02001779YS02001774 CONDUIT     11.76     0  04:51      0.06    0.01    0.64
  YS02001649YS02001757 CONDUIT    147.64     0  03:49      0.21    0.09    0.87
  YS02001767YS02001765 CONDUIT     73.22     0  04:42      0.25    0.09    0.72
  YS02006561YS02001783 CONDUIT    163.77     0  03:03      1.50    0.08    0.27
  YS02001783YS02001784 CONDUIT    163.76     0  03:03      1.00    0.23    0.36
  YS02001784YS02001785 CONDUIT    164.80     0  03:04      1.03    0.38    0.35
  YS02001788YS02001790 CONDUIT    164.91     0  03:04      1.58    0.12    0.26
  YS02001790YS02001791 CONDUIT    165.05     0  03:04      1.80    0.18    0.24
  YS02001791YS02001793 CONDUIT    165.05     0  03:05      3.53    0.07    0.16
  YS02001910YS02001907 CONDUIT     50.42     0  03:05      0.49    0.03    0.62
  YS02001786YS02001788 CONDUIT    164.85     0  03:04      1.43    0.32    0.28
  YS02001915YS02001910 CONDUIT     50.42     0  03:02      0.44    0.03    0.41
  YS02001918YS02001915 CONDUIT     17.53     0  03:05      0.44    0.01    0.18
  YS02001923YS02001920 CONDUIT     14.69     0  03:03      0.31    0.01    0.11
  YS02001926YS02001923 CONDUIT     14.65     0  03:03      0.37    0.02    0.10
  YS02001929YS02001926 CONDUIT     14.67     0  03:01      0.38    0.01    0.10
  YS02001920YS02001918 CONDUIT     17.54     0  03:04      0.35    0.02    0.12
  YS02001629YS02163301 CONDUIT     34.88     0  02:44      0.08    0.04    0.66
  YS02001619YS02001622 CONDUIT     32.80     0  02:53      0.52    0.05    0.28
  YS02001622YS02001625 CONDUIT     34.44     0  02:53      0.17    0.02    0.44
  YS02001625YS02001629 CONDUIT     34.20     0  03:10      0.17    0.02    0.42
  YS02163301YS02001633 CONDUIT     37.48     0  02:44      0.07    0.04    0.71
  YS02163601YS02164001 CONDUIT     68.90     0  03:11      0.11    0.06    0.76
  YS02164001YS02001641 CONDUIT     68.87     0  03:44      0.11    0.09    0.74
  YS02001641YS02001644 CONDUIT     67.93     0  03:11      0.12    0.22    0.76
  YS02001647YS02001649 CONDUIT    102.08     0  03:48      0.18    0.05    0.69
  YS02006553YS02006556 CONDUIT    112.10     0  03:05      0.19    0.10    0.70
  YS02006556YS02006558 CONDUIT    112.18     0  03:05      0.18    0.09    0.73
  YSB6556YSB1171       CONDUIT      6.16     0  02:31      0.03    0.01    0.49
  YS02001907YS02006553 CONDUIT    111.94     0  03:05      0.16    0.13    0.80
  YS02006558YS02006561 CONDUIT    163.77     0  03:03      1.94    0.36    0.34
  YS02001633YS02163601 CONDUIT     67.98     0  03:11      0.12    0.07    0.76
  YS02001644YS02001647 CONDUIT    101.07     0  03:10      0.19    0.06    0.67
  YS02001745YS02001748 CONDUIT     36.55     0  03:01      1.18    0.01    0.08
  YS02001748YS02001751 CONDUIT     41.96     0  03:41      0.91    0.02    0.21
  YS02001751YS02001754 CONDUIT     84.68     0  04:32      0.82    0.04    0.43
  YS02001754YS02001757 CONDUIT    159.04     0  04:47      0.33    0.06    0.76
  YS02001882YS02001884 CONDUIT      1.94     0  02:22      0.06    0.00    0.34
  YS02001884YS02001887 CONDUIT      5.63     0  02:11      0.04    0.01    0.43
  YS02001890YS02001895 CONDUIT     61.93     0  03:01      0.21    0.03    0.41
  YS02001895YS02001898 CONDUIT     61.82     0  03:01      0.40    0.11    0.27
  YS02001898YS02001901 CONDUIT     61.94     0  03:03      0.26    0.04    0.35
  YS02001901YS02001904 CONDUIT     61.68     0  03:03      0.21    0.10    0.40
  YS02001904YS02001907 CONDUIT     61.93     0  03:03      0.14    0.02    0.56
  YS02001887YS02001890 CONDUIT     62.19     0  03:00      0.16    0.11    0.49
  YS02001652YS02001649 CONDUIT     59.13     0  04:35      0.24    0.03    0.70
  YS02001655YS02001652 CONDUIT     50.66     0  03:04      0.88    0.02    0.45
  YS02001658YS02001655 CONDUIT     44.21     0  03:01      1.04    0.02    0.21
  YS02001661YS02001658 CONDUIT     44.22     0  03:01      1.20    0.02    0.09
  YS02001664YS02001661 CONDUIT     44.24     0  03:01      0.81    0.01    0.12
  YSB1154YSB6556       CONDUIT      6.08     0  02:27      0.19    0.01    0.38
  YSB1174YSB1171       CONDUIT      5.54     0  02:20      0.03    0.01    0.49
  YSB1171HS02004479    CONDUIT     11.25     0  02:29      0.54    0.01    0.37
  HS02004881HS02006253 CONDUIT     17.98     0  02:30      1.23    0.00    0.22
  YS02001793JiankangQianchi CONDUIT    165.05     0  03:05     10.84    0.01    0.50
  YS02001757CaochengTiaoxuchi CONDUIT    260.92     0  03:11      0.69    0.11    0.52
  WSF200WS02003060     CONDUIT    416.37     0  04:05      1.70    0.09    0.29
  1                    CONDUIT    723.52     0  05:55      3.05    0.25    0.34
  2                    CONDUIT     96.42     0  03:57      4.80    0.23    0.33
  3                    CONDUIT    250.55     0  00:00      8.29    0.40    0.46
  4                    CONDUIT      0.00     0  00:00      0.00    0.00    0.00
  CC-Pump-1            PUMP       200.00     0  03:00              1.00
  CC-Pump-2            PUMP       200.00     0  03:40              1.00
  JK-Pump-1            PUMP       241.25     0  06:38              0.80
  JK-Pump-2            PUMP       300.00     0  00:00              1.00
  XR-Pump-1            PUMP        95.00     0  01:20              1.00
  XR-Pump-2            PUMP        95.00     0  01:30              1.00
  XR-Pump-3            PUMP        95.00     0  00:40              1.00
  XR-Pump-4            PUMP        95.00     0  01:00              1.00
  
  
  ***************************
  Flow Classification Summary
  ***************************
  
  -------------------------------------------------------------------------------------
                      Adjusted    ---------- Fraction of Time in Flow Class ---------- 
                       /Actual         Up    Down  Sub   Sup   Up    Down  Norm  Inlet 
  Conduit               Length    Dry  Dry   Dry   Crit  Crit  Crit  Crit  Ltd   Ctrl  
  -------------------------------------------------------------------------------------
  WS02003066WSF200        1.00   0.07  0.00  0.00  0.00  0.93  0.00  0.00  0.77  0.00
  WS02006287WS02006284    1.00   0.04  0.02  0.00  0.76  0.18  0.00  0.00  0.81  0.00
  WS02006284WS02006280    1.00   0.05  0.00  0.00  0.00  0.00  0.00  0.95  0.00  0.00
  WS02006280WS02006229    1.00   0.05  0.00  0.00  0.00  0.00  0.00  0.95  0.00  0.00
  WS02006229WS02006228    1.00   0.00  0.00  0.00  0.99  0.00  0.00  0.01  0.00  0.00
  WS02006256WS02006235    1.00   0.00  0.00  0.00  1.00  0.00  0.00  0.00  0.00  0.00
  WS02006253WS02006251    1.00   0.03  0.01  0.00  0.95  0.00  0.00  0.00  0.00  0.00
  WS02006252WS02006251    1.00   0.10  0.00  0.00  0.00  0.00  0.90  0.00  0.00  0.00
  WS02006251WS02006249    1.00   0.00  0.00  0.00  1.00  0.00  0.00  0.00  0.32  0.00
  WS02006249WS02006248    1.00   0.00  0.02  0.00  0.89  0.00  0.09  0.00  0.00  0.00
  WS02006248WS02006247    1.00   0.03  0.00  0.00  0.97  0.00  0.00  0.00  0.20  0.00
  WS02006247WS02006245    1.00   0.02  0.00  0.00  0.98  0.00  0.00  0.00  0.00  0.00
  WS02006245WS02006243    1.00   0.01  0.00  0.00  0.93  0.00  0.00  0.05  0.02  0.00
  WS02006243WS02006242    1.00   0.01  0.00  0.00  0.99  0.00  0.00  0.00  0.28  0.00
  WS02006242WS02006240    1.00   0.00  0.00  0.00  1.00  0.00  0.00  0.00  0.00  0.00
  WS02006240WS02006239    1.00   0.00  0.00  0.00  0.95  0.00  0.00  0.05  0.01  0.00
  WS02006239WS02006238    1.00   0.00  0.00  0.00  1.00  0.00  0.00  0.00  0.01  0.00
  WS02006238WS02006235    1.00   0.00  0.00  0.00  1.00  0.00  0.00  0.00  0.00  0.00
  WS02006235WS02006234    1.00   0.00  0.00  0.00  0.94  0.00  0.06  0.00  0.00  0.00
  WS02006234WS02006232    1.00   0.00  0.00  0.00  1.00  0.00  0.00  0.00  0.10  0.00
  WS02006232WS02006231    1.00   0.00  0.00  0.00  0.99  0.00  0.00  0.00  0.00  0.00
  WS02006231WS02006230    1.00   0.00  0.00  0.00  0.45  0.00  0.54  0.00  0.00  0.00
  WS02006230WS02006229    1.00   0.00  0.00  0.00  0.98  0.00  0.00  0.02  0.01  0.00
  WS02006228WS02006109    1.00   0.00  0.00  0.00  1.00  0.00  0.00  0.00  0.00  0.00
  WS02006116WS02004401    1.00   0.03  0.00  0.00  0.97  0.00  0.00  0.00  0.00  0.00
  WS02006115WS02006116    1.00   0.03  0.00  0.00  0.97  0.00  0.00  0.01  0.00  0.00
  WS02006113WS02006111    1.00   0.02  0.00  0.00  0.00  0.98  0.00  0.00  0.12  0.00
  WS02006112WS02006115    1.00   0.02  0.00  0.00  0.97  0.00  0.00  0.00  0.00  0.00
  WS02006111WS02006112    1.00   0.02  0.00  0.00  0.97  0.00  0.00  0.00  0.98  0.00
  WS02006110WS02006113    1.00   0.01  0.01  0.00  0.98  0.00  0.00  0.00  0.00  0.00
  WS02006109WS02006110    1.00   0.00  0.01  0.00  0.98  0.00  0.01  0.00  0.00  0.00
  WS02004411WS02004412    1.00   0.04  0.00  0.00  0.96  0.00  0.00  0.00  0.00  0.00
  WS02004401WS02004402    1.00   0.03  0.00  0.00  0.97  0.00  0.00  0.00  0.00  0.00
  WS02004413WS02003067    1.00   0.04  0.02  0.00  0.00  0.00  0.94  0.00  0.00  0.00
  WS02004412WS02004413    1.00   0.04  0.00  0.00  0.96  0.00  0.00  0.00  0.03  0.00
  WS02004410WS02004411    1.00   0.04  0.00  0.00  0.96  0.00  0.00  0.00  0.04  0.00
  WS02004409WS02004410    1.00   0.04  0.00  0.00  0.96  0.00  0.00  0.00  0.04  0.00
  WS02004407WS02004409    1.00   0.04  0.00  0.00  0.96  0.00  0.00  0.00  0.89  0.00
  WS02004406WS02004407    1.00   0.00  0.04  0.00  0.96  0.00  0.00  0.00  0.00  0.00
  WS02004405WS02004406    1.00   0.00  0.00  0.00  1.00  0.00  0.00  0.00  0.00  0.00
  WS02004404WS02004405    1.00   0.00  0.00  0.00  1.00  0.00  0.00  0.00  0.00  0.00
  WS02004403WS02004404    1.00   0.00  0.03  0.00  0.97  0.00  0.00  0.00  0.01  0.00
  WS02004402WS02004403    1.00   0.03  0.00  0.00  0.97  0.00  0.00  0.00  0.00  0.00
  WS02004139WS02001211    1.00   0.00  0.01  0.00  0.99  0.00  0.00  0.00  0.00  0.00
  WS02004138WS02004139    1.00   0.02  0.01  0.00  0.97  0.00  0.00  0.00  0.98  0.00
  WS02003067WS02003066    1.00   0.06  0.00  0.00  0.94  0.00  0.00  0.00  0.00  0.00
  WS02001213WS02003059    1.00   0.00  0.01  0.00  0.99  0.00  0.00  0.00  0.00  0.00
  WS02001212WS02001213    1.00   0.03  0.00  0.00  0.74  0.00  0.23  0.00  0.00  0.00
  WS02001211WS02001212    1.00   0.00  0.03  0.00  0.97  0.00  0.00  0.00  0.00  0.00
  WS02003072WS02003073    1.00   0.00  0.00  0.00  0.00  0.00  0.00  1.00  0.00  0.00
  WS02003069WS02003072    1.00   0.00  0.00  0.00  0.99  0.01  0.00  0.00  0.31  0.00
  WS02003060WS02003069    1.00   0.00  0.00  0.00  0.99  0.01  0.00  0.00  0.17  0.00
  WS02003059WS02003060    1.00   0.00  0.00  0.00  1.00  0.00  0.00  0.00  0.04  0.00
  HS02004901HS02004770    1.00   0.05  0.00  0.00  0.95  0.00  0.00  0.00  0.03  0.00
  HS02004876HS02004881    1.00   0.03  0.00  0.00  0.97  0.00  0.00  0.00  0.00  0.00
  HS02004870HS02004876    1.00   0.01  0.00  0.00  0.99  0.00  0.00  0.00  0.95  0.00
  HS02004842HS02004848    1.00   0.00  0.05  0.00  0.95  0.00  0.00  0.00  0.70  0.00
  HS02004837HS02004842    1.00   0.00  0.00  0.00  0.99  0.01  0.00  0.00  0.11  0.00
  HS02004830HS02004837    1.00   0.00  0.00  0.00  1.00  0.00  0.00  0.00  0.99  0.00
  HS02004824HS02004830    1.00   0.00  0.00  0.00  1.00  0.00  0.00  0.00  0.00  0.00
  HS02004817HS02004824    1.00   0.00  0.00  0.00  1.00  0.00  0.00  0.00  1.00  0.00
  HS02004770HS02004777    1.00   0.00  0.05  0.00  0.95  0.00  0.00  0.00  0.08  0.00
  HS02004799HS02004480    1.00   0.00  0.03  0.00  0.94  0.00  0.03  0.00  0.00  0.00
  HS02004792HS02004799    1.00   0.00  0.00  0.00  0.98  0.02  0.00  0.00  0.98  0.00
  HS02004788HS02004792    1.00   0.00  0.00  0.00  0.99  0.01  0.00  0.00  0.98  0.00
  HS02004785HS02004788    1.00   0.00  0.00  0.00  1.00  0.00  0.00  0.00  0.00  0.00
  HS02004777HS02004785    1.00   0.00  0.00  0.00  1.00  0.00  0.00  0.00  0.22  0.00
  HS02004480HS02004478    1.00   0.05  0.00  0.00  0.78  0.00  0.00  0.17  0.00  0.00
  HS02004479HS02004480    1.00   0.03  0.00  0.00  0.97  0.00  0.00  0.00  0.16  0.00
  HS02004862HS02004870    1.00   0.00  0.00  0.00  1.00  0.00  0.00  0.00  0.06  0.00
  HS02004848HS02004852    1.00   0.05  0.00  0.00  0.95  0.00  0.00  0.00  0.68  0.00
  HS02004856HS02004862    1.00   0.00  0.08  0.00  0.92  0.00  0.00  0.00  0.73  0.00
  HS02004852HS02004856    1.00   0.05  0.01  0.00  0.94  0.00  0.00  0.00  0.82  0.00
  HS02004802HS02004478    1.00   0.05  0.01  0.00  0.94  0.00  0.00  0.00  0.00  0.00
  HS02004478WS02006287    1.00   0.06  0.00  0.00  0.94  0.00  0.00  0.00  0.81  0.00
  HS02004817HS02004807    1.00   0.00  0.05  0.00  0.95  0.00  0.00  0.00  0.00  0.00
  HS02004807HS02004802    1.00   0.05  0.00  0.00  0.95  0.00  0.00  0.00  0.01  0.00
  YS02001759YS02001757    1.00   0.00  0.00  0.00  1.00  0.00  0.00  0.00  0.17  0.00
  YS02001762YS02001759    1.00   0.00  0.00  0.00  1.00  0.00  0.00  0.00  0.05  0.00
  YS02001765YS02001762    1.00   0.00  0.00  0.00  1.00  0.00  0.00  0.00  0.23  0.00
  YS02001770YS02001767    1.00   0.00  0.00  0.00  1.00  0.00  0.00  0.00  0.00  0.00
  YS02001774YS02001770    1.00   0.00  0.06  0.00  0.94  0.00  0.00  0.00  0.07  0.00
  YS02001779YS02001774    1.00   0.00  0.00  0.00  1.00  0.00  0.00  0.00  0.28  0.00
  YS02001649YS02001757    1.00   0.00  0.00  0.00  1.00  0.00  0.00  0.00  0.19  0.00
  YS02001767YS02001765    1.00   0.00  0.00  0.00  1.00  0.00  0.00  0.00  0.01  0.00
  YS02006561YS02001783    1.00   0.08  0.00  0.00  0.00  0.92  0.00  0.00  0.72  0.00
  YS02001783YS02001784    1.00   0.00  0.08  0.00  0.92  0.00  0.00  0.00  0.12  0.00
  YS02001784YS02001785    1.00   0.00  0.00  0.00  1.00  0.00  0.00  0.00  0.27  0.00
  YS02001788YS02001790    1.00   0.00  0.00  0.00  0.08  0.92  0.00  0.00  0.99  0.00
  YS02001790YS02001791    1.00   0.00  0.00  0.00  0.02  0.98  0.00  0.00  0.34  0.00
  YS02001791YS02001793    1.00   0.00  0.00  0.00  0.00  1.00  0.00  0.00  0.00  0.00
  YS02001910YS02001907    1.00   0.00  0.00  0.00  0.97  0.00  0.00  0.03  0.13  0.00
  YS02001786YS02001788    1.00   0.00  0.00  0.00  0.11  0.89  0.00  0.00  0.00  0.00
  YS02001915YS02001910    1.00   0.00  0.00  0.00  0.99  0.01  0.00  0.00  0.25  0.00
  YS02001918YS02001915    1.00   0.00  0.01  0.00  0.98  0.02  0.00  0.00  0.80  0.00
  YS02001923YS02001920    1.00   0.00  0.00  0.00  1.00  0.00  0.00  0.00  1.00  0.00
  YS02001926YS02001923    1.00   0.00  0.04  0.00  0.00  0.00  0.96  0.00  0.00  0.00
  YS02001929YS02001926    1.00   0.00  0.05  0.00  0.95  0.00  0.00  0.00  0.86  0.00
  YS02001920YS02001918    1.00   0.00  0.01  0.00  0.99  0.00  0.00  0.00  0.00  0.00
  YS02001629YS02163301    1.00   0.07  0.00  0.00  0.93  0.00  0.00  0.00  0.00  0.00
  YS02001619YS02001622    1.00   0.05  0.00  0.00  0.95  0.00  0.00  0.00  0.00  0.00
  YS02001622YS02001625    1.00   0.05  0.00  0.00  0.95  0.00  0.00  0.00  0.15  0.00
  YS02001625YS02001629    1.00   0.05  0.03  0.00  0.90  0.00  0.02  0.00  0.00  0.00
  YS02163301YS02001633    1.00   0.00  0.07  0.00  0.93  0.00  0.00  0.00  0.00  0.00
  YS02163601YS02164001    1.00   0.00  0.04  0.00  0.96  0.00  0.00  0.00  0.00  0.00
  YS02164001YS02001641    1.00   0.01  0.03  0.00  0.96  0.00  0.00  0.00  0.07  0.00
  YS02001641YS02001644    1.00   0.00  0.01  0.00  0.99  0.00  0.00  0.00  0.00  0.00
  YS02001647YS02001649    1.00   0.00  0.08  0.00  0.92  0.00  0.00  0.00  0.01  0.00
  YS02006553YS02006556    1.00   0.02  0.00  0.00  0.98  0.00  0.00  0.00  0.03  0.00
  YS02006556YS02006558    1.00   0.00  0.00  0.00  1.00  0.00  0.00  0.00  0.00  0.00
  YSB6556YSB1171          1.00   0.03  0.02  0.00  0.95  0.00  0.00  0.00  0.00  0.00
  YS02001907YS02006553    1.00   0.00  0.02  0.00  0.97  0.00  0.00  0.00  0.00  0.00
  YS02006558YS02006561    1.00   0.08  0.00  0.00  0.00  0.92  0.00  0.00  0.71  0.00
  YS02001633YS02163601    1.00   0.00  0.01  0.00  0.99  0.00  0.00  0.00  0.20  0.00
  YS02001644YS02001647    1.00   0.00  0.08  0.00  0.92  0.00  0.00  0.00  0.00  0.00
  YS02001745YS02001748    1.00   0.00  0.00  0.00  0.00  0.00  0.00  1.00  0.00  0.00
  YS02001748YS02001751    1.00   0.00  0.00  0.00  0.97  0.03  0.00  0.00  0.80  0.00
  YS02001751YS02001754    1.00   0.00  0.00  0.00  0.92  0.00  0.00  0.08  0.03  0.00
  YS02001754YS02001757    1.00   0.00  0.00  0.00  0.99  0.01  0.00  0.00  0.28  0.00
  YS02001882YS02001884    1.00   0.06  0.00  0.00  0.93  0.00  0.00  0.00  0.00  0.00
  YS02001884YS02001887    1.00   0.03  0.01  0.00  0.96  0.00  0.00  0.00  0.00  0.00
  YS02001890YS02001895    1.00   0.00  0.07  0.00  0.93  0.00  0.00  0.00  0.00  0.00
  YS02001895YS02001898    1.00   0.07  0.00  0.00  0.92  0.00  0.01  0.00  0.00  0.00
  YS02001898YS02001901    1.00   0.07  0.01  0.00  0.93  0.00  0.00  0.00  0.02  0.00
  YS02001901YS02001904    1.00   0.07  0.00  0.00  0.93  0.00  0.00  0.00  0.00  0.00
  YS02001904YS02001907    1.00   0.00  0.06  0.00  0.93  0.00  0.00  0.00  0.00  0.00
  YS02001887YS02001890    1.00   0.00  0.00  0.00  0.97  0.00  0.03  0.00  0.00  0.00
  YS02001652YS02001649    1.00   0.00  0.00  0.00  1.00  0.00  0.00  0.00  0.27  0.00
  YS02001655YS02001652    1.00   0.00  0.00  0.00  0.92  0.00  0.00  0.08  0.03  0.00
  YS02001658YS02001655    1.00   0.00  0.06  0.00  0.91  0.03  0.00  0.00  0.79  0.00
  YS02001661YS02001658    1.00   0.06  0.00  0.00  0.00  0.94  0.00  0.00  0.72  0.00
  YS02001664YS02001661    1.00   0.05  0.00  0.00  0.95  0.00  0.00  0.00  0.86  0.00
  YSB1154YSB6556          1.00   0.05  0.00  0.00  0.95  0.00  0.00  0.00  0.02  0.00
  YSB1174YSB1171          1.00   0.03  0.01  0.00  0.96  0.00  0.00  0.00  0.00  0.00
  YSB1171HS02004479       1.00   0.03  0.00  0.00  0.97  0.00  0.00  0.00  0.13  0.00
  HS02004881HS02006253    1.00   0.03  0.00  0.00  0.71  0.02  0.00  0.24  0.51  0.00
  YS02001793JiankangQianchi    1.00   0.00  0.00  0.00  0.09  0.91  0.00  0.00  0.12  0.00
  YS02001757CaochengTiaoxuchi    1.00   0.00  0.10  0.00  0.90  0.00  0.00  0.00  0.00  0.00
  WSF200WS02003060        1.00   0.00  0.07  0.00  0.81  0.12  0.00  0.00  0.38  0.00
  1                       1.00   0.00  0.00  0.00  0.00  1.00  0.00  0.00  0.33  0.00
  2                       1.00   0.72  0.00  0.00  0.00  0.28  0.00  0.00  0.06  0.00
  3                       1.00   0.34  0.00  0.00  0.00  0.66  0.00  0.00  0.46  0.00
  4                       1.00   1.00  0.00  0.00  0.00  0.00  0.00  0.00  0.00  0.00
  
  
  *************************
  Conduit Surcharge Summary
  *************************
  
  ----------------------------------------------------------------------------
                                                           Hours        Hours 
                         --------- Hours Full --------   Above Full   Capacity
  Conduit                Both Ends  Upstream  Dnstream   Normal Flow   Limited
  ----------------------------------------------------------------------------
  WS02006229WS02006228        0.71      1.00      0.71      2.80         0.71
  WS02006256WS02006235        5.54      5.54      7.05      2.11         0.01
  WS02006252WS02006251        0.61      0.61      1.65      1.41         0.01
  WS02006251WS02006249        0.01      0.01      0.01      0.60         0.01
  WS02006249WS02006248        0.01      0.01      0.01      2.63         0.01
  WS02006247WS02006245        0.01      0.01      0.01      4.24         0.01
  WS02006243WS02006242        0.01      0.01      0.48      0.01         0.01
  WS02006242WS02006240        0.01      0.01      0.90      1.52         0.01
  WS02006240WS02006239        0.01      0.01      0.01      0.05         0.01
  WS02006239WS02006238        0.60      0.61      0.66      0.09         0.06
  WS02006238WS02006235        0.51      0.51      1.23      0.01         0.01
  WS02006235WS02006234        0.01      0.01      0.31      5.57         0.01
  WS02006234WS02006232        0.01      0.01      1.29      0.01         0.01
  WS02006232WS02006231        0.01      0.01      1.29      0.01         0.01
  WS02006231WS02006230        0.01      0.01      0.01      5.56         0.01
  WS02006230WS02006229        1.99      2.52      1.99      5.66         1.99
  WS02006228WS02006109        0.85      1.56      0.85      4.40         0.85
  WS02006111WS02006112        0.01      0.01      3.08      0.01         0.01
  WS02006110WS02006113        0.01      0.01      1.42      0.01         0.01
  WS02006109WS02006110        0.01      0.01      1.56      0.01         0.01
  WS02004404WS02004405        0.01      0.01      0.01      5.38         0.01
  WS02003072WS02003073        0.01      0.01      0.01      4.18         0.01
  YS02001793JiankangQianchi        0.01      0.01      0.09      0.01         0.01
  
  
  ***************
  Pumping Summary
  ***************
  
  ---------------------------------------------------------------------------------------------------------
                                                  Min       Avg       Max     Total     Power    % Time Off
                        Percent   Number of      Flow      Flow      Flow    Volume     Usage    Pump Curve
  Pump                 Utilized   Start-Ups       LPS       LPS       LPS  10^6 ltr     Kw-hr    Low   High
  ---------------------------------------------------------------------------------------------------------
  CC-Pump-1               62.94           2      0.00    127.26    200.00     2.162      9.65    0.0  100.0
  CC-Pump-2               56.56           3      0.00    111.06    200.00     1.728      7.81    0.0  100.0
  JK-Pump-1               72.34           8      0.00     77.44    241.25     1.197     23.31    0.0    0.0
  JK-Pump-2               85.10           6      0.00     85.47    300.00     1.577     29.87    0.0    0.0
  XR-Pump-1               76.58           9      0.00     69.55     95.00     1.453     10.35    0.0    0.0
  XR-Pump-2               76.59           8      0.00     65.22     95.00     1.396      9.85    0.0    0.0
  XR-Pump-3               82.95           9      0.00     72.09     95.00     1.596     11.40    0.0    0.0
  XR-Pump-4               76.59           8      0.00     67.80     95.00     1.425     10.46    0.0    0.0
  

  Analysis begun on:  Tue Dec 21 14:28:40 2021
  Analysis ended on:  Tue Dec 21 14:28:43 2021
  Total elapsed time: 00:00:03