
  EPA STORM WATER MANAGEMENT MODEL - VERSION 5.1 (Build 5.3.0.dev0)
  --------------------------------------------------------------

  WARNING 04: minimum elevation drop used for Conduit WS02004404WS02004405
  WARNING 03: negative offset ignored for Link YS02001904YS02001907
  
  *********************************************************
  NOTE: The summary statistics displayed in this report are
  based on results found at every computational time step,  
  not just on results from each reporting time step.
  *********************************************************
  
  ****************
  Analysis Options
  ****************
  Flow Units ............... LPS
  Process Models:
    Rainfall/Runoff ........ YES
    RDII ................... NO
    Snowmelt ............... NO
    Groundwater ............ NO
    Flow Routing ........... YES
    Ponding Allowed ........ NO
    Water Quality .......... NO
  Infiltration Method ...... HORTON
  Flow Routing Method ...... DYNWAVE
  Surcharge Method ......... EXTRAN
  Starting Date ............ 08/28/2015 08:00:00
  Ending Date .............. 08/28/2015 15:50:00
  Antecedent Dry Days ...... 8.0
  Report Time Step ......... 00:01:00
  Wet Time Step ............ 00:01:00
  Dry Time Step ............ 00:01:00
  Routing Time Step ........ 5.00 sec
  Variable Time Step ....... YES
  Maximum Trials ........... 8
  Number of Threads ........ 4
  Head Tolerance ........... 0.001500 m
  
  
  **************************        Volume         Depth
  Runoff Quantity Continuity     hectare-m            mm
  **************************     ---------       -------
  Total Precipitation ......         2.691         5.892
  Evaporation Loss .........         0.000         0.000
  Infiltration Loss ........         0.676         1.480
  Surface Runoff ...........         1.133         2.480
  Final Storage ............         0.883         1.933
  Continuity Error (%) .....        -0.018
  
  
  **************************        Volume        Volume
  Flow Routing Continuity        hectare-m      10^6 ltr
  **************************     ---------     ---------
  Dry Weather Inflow .......         0.616         6.165
  Wet Weather Inflow .......         1.132        11.321
  Groundwater Inflow .......         0.000         0.000
  RDII Inflow ..............         0.000         0.000
  External Inflow ..........         0.102         1.024
  External Outflow .........         1.719        17.189
  Flooding Loss ............         0.032         0.315
  Evaporation Loss .........         0.000         0.000
  Exfiltration Loss ........         0.000         0.000
  Initial Stored Volume ....         0.076         0.761
  Final Stored Volume ......         0.267         2.675
  Continuity Error (%) .....        -4.716
  
  
  *************************
  Highest Continuity Errors
  *************************
  Node HS02004842 (28.52%)
  Node JK-storage (-25.81%)
  Node YS02001884 (22.90%)
  Node YS02001774 (9.42%)
  Node YSB1171 (6.99%)
  
  
  ***************************
  Time-Step Critical Elements
  ***************************
  Link WS02006252WS02006251 (58.57%)
  Link 3 (26.78%)
  Link WS02006238WS02006235 (7.03%)
  Link WS02006280WS02006229 (2.08%)
  
  
  ********************************
  Highest Flow Instability Indexes
  ********************************
  Link WS02006113WS02006111 (37)
  Link WS02006111WS02006112 (24)
  Link YS02006558YS02006561 (12)
  Link WS02006110WS02006113 (3)
  Link YS02001767YS02001765 (2)
  
  
  *************************
  Routing Time Step Summary
  *************************
  Minimum Time Step           :     0.48 sec
  Average Time Step           :     0.87 sec
  Maximum Time Step           :     5.00 sec
  Percent in Steady State     :    -0.00
  Average Iterations per Step :     2.04
  Percent Not Converging      :     0.31
  
  
  ***************************
  Subcatchment Runoff Summary
  ***************************
  
  ------------------------------------------------------------------------------------------------------------------------------
                            Total      Total      Total      Total     Imperv       Perv      Total       Total     Peak  Runoff
                           Precip      Runon       Evap      Infil     Runoff     Runoff     Runoff      Runoff   Runoff   Coeff
  Subcatchment                 mm         mm         mm         mm         mm         mm         mm    10^6 ltr      LPS
  ------------------------------------------------------------------------------------------------------------------------------
  sub0                       5.89       0.00       0.00       0.41       4.21       0.00       4.21        0.00     1.47   0.715
  sub1                       5.89       0.00       0.00       0.65       3.99       0.00       3.99        0.03     7.65   0.677
  sub2                       5.89       0.00       0.00       2.18       2.81       0.00       2.81        0.03     6.74   0.476
  sub3                       5.89       0.00       0.00       2.18       2.77       0.00       2.77        0.06    13.82   0.470
  sub4                       5.89       0.00       0.00       0.65       3.85       0.00       3.85        0.08    15.45   0.654
  sub5                       5.89       0.00       0.00       0.41       4.17       0.00       4.17        0.05    13.60   0.707
  sub7                       5.89       0.00       0.00       0.53       4.11       0.00       4.11        0.01     4.82   0.697
  sub8                       5.89       0.00       0.00       0.53       4.10       0.00       4.10        0.03     8.49   0.696
  sub9                       5.89       0.00       0.00       0.53       4.10       0.00       4.10        0.02     6.29   0.695
  sub10                      5.89       0.00       0.00       0.47       4.13       0.00       4.13        0.05    13.58   0.701
  sub11                      5.89       0.00       0.00       0.47       4.15       0.00       4.15        0.05    15.97   0.704
  sub12                      5.89       0.00       0.00       0.77       3.94       0.00       3.94        0.03    13.59   0.668
  sub14                      5.89       0.00       0.00       0.53       4.09       0.00       4.09        0.04    12.29   0.695
  sub15                      5.89       0.00       0.00       1.77       3.15       0.00       3.15        0.05    16.66   0.534
  sub16                      5.89       0.00       0.00       1.94       3.03       0.00       3.03        0.03    11.93   0.514
  sub17                      5.89       0.00       0.00       1.89       3.07       0.00       3.07        0.03     9.64   0.522
  sub22                      5.89       0.00       0.00       2.53       2.57       0.00       2.57        0.16    54.70   0.436
  sub23                      5.89       0.00       0.00       2.18       2.84       0.00       2.84        0.14    46.61   0.482
  sub60                      5.89       0.00       0.00       0.71       2.76       0.00       2.76        0.84    76.77   0.469
  sub61                      5.89       0.00       0.00       1.00       2.95       0.00       2.95        0.91    96.90   0.501
  sub62                      5.89       0.00       0.00       0.47       3.17       0.00       3.17        0.97    98.85   0.538
  sub63                      5.89       0.00       0.00       1.71       2.63       0.00       2.63        0.80    90.67   0.447
  sub64                      5.89       0.00       0.00       0.88       2.64       0.00       2.64        0.80    72.89   0.448
  sub65                      5.89       0.00       0.00       0.77       2.67       0.00       2.67        0.82    73.94   0.453
  sub66                      5.89       0.00       0.00       1.71       2.30       0.00       2.30        0.71    66.93   0.391
  sub67                      5.89       0.00       0.00       0.47       3.49       0.00       3.49        1.08   127.64   0.592
  sub68                      5.89       0.00       0.00       0.82       3.14       0.00       3.14        0.97   107.31   0.534
  sub69                      5.89       0.00       0.00       0.88       3.40       0.00       3.40        0.79   107.30   0.576
  sub70                      5.89       3.47       0.00       3.18       4.16       0.00       4.16        0.95    85.44   0.445
  sub71                      5.89       0.00       0.00       0.47       3.03       0.00       3.03        0.72    68.84   0.514
  sub72                      5.89       0.00       0.00       0.41       2.13       0.00       2.13        0.43    32.41   0.362
  sub73                      5.89       4.05       0.00       3.38       4.23       0.00       4.23        0.99    73.37   0.426
  sub74                      5.89       0.00       0.00       4.42       1.02       0.00       1.02        0.41    60.02   0.174
  
  
  ******************
  Node Depth Summary
  ******************
  
  ---------------------------------------------------------------------------------
                                 Average  Maximum  Maximum  Time of Max    Reported
                                   Depth    Depth      HGL   Occurrence   Max Depth
  Node                 Type       Meters   Meters   Meters  days hr:min      Meters
  ---------------------------------------------------------------------------------
  WS02001211           JUNCTION     0.66     0.78     5.62     0  03:50        0.78
  WS02001212           JUNCTION     0.39     0.49     5.56     0  03:50        0.49
  WS02001213           JUNCTION     0.62     0.74     5.50     0  03:49        0.74
  WS02003069           JUNCTION     0.44     0.54     5.13     0  03:48        0.54
  WS02003072           JUNCTION     0.51     0.61     4.98     0  03:48        0.61
  WS02003073           JUNCTION     0.31     0.37     4.44     0  03:49        0.37
  WS02003060           JUNCTION     0.40     0.48     5.41     0  03:47        0.48
  WS02003066           JUNCTION     0.24     0.28     5.84     0  02:44        0.28
  WS02003059           JUNCTION     0.68     0.79     5.47     0  03:49        0.79
  WS02003067           JUNCTION     0.58     0.68     6.00     0  02:44        0.68
  WS02004401           JUNCTION     0.68     0.80     6.80     0  02:40        0.80
  WS02004402           JUNCTION     0.71     0.83     6.79     0  02:41        0.83
  WS02004403           JUNCTION     0.74     0.85     6.78     0  02:41        0.85
  WS02004404           JUNCTION     0.81     0.92     6.77     0  02:41        0.92
  WS02004406           JUNCTION     0.82     0.92     6.75     0  02:41        0.92
  WS02004409           JUNCTION     0.50     0.62     6.39     0  02:43        0.62
  WS02004410           JUNCTION     0.52     0.64     6.36     0  02:43        0.64
  WS02004411           JUNCTION     0.54     0.65     6.33     0  02:43        0.65
  WS02004412           JUNCTION     0.55     0.66     6.30     0  02:44        0.66
  WS02004413           JUNCTION     0.71     0.82     6.29     0  02:44        0.82
  WS02004405           JUNCTION     0.81     0.92     6.77     0  02:41        0.92
  WS02006109           JUNCTION     0.76     0.90     7.52     0  02:28        0.90
  WS02006110           JUNCTION     0.76     0.88     7.46     0  02:28        0.88
  WS02006111           JUNCTION     0.22     0.27     6.98     0  02:29        0.27
  WS02006112           JUNCTION     0.85     0.99     6.87     0  02:40        0.99
  WS02006113           JUNCTION     0.35     0.43     7.32     0  02:29        0.42
  WS02006115           JUNCTION     0.58     0.70     6.84     0  02:40        0.70
  WS02006116           JUNCTION     0.66     0.78     6.82     0  02:40        0.78
  WS02006230           JUNCTION     0.74     0.91     7.65     0  02:39        0.91
  WS02006231           JUNCTION     0.50     0.61     7.73     0  03:33        0.61
  WS02006232           JUNCTION     0.64     0.76     7.79     0  03:33        0.76
  WS02006234           JUNCTION     0.56     0.71     7.87     0  03:34        0.71
  WS02006235           JUNCTION     0.59     0.75     7.92     0  03:34        0.75
  WS02006238           JUNCTION     0.62     0.78     7.93     0  03:34        0.78
  WS02006240           JUNCTION     0.53     0.71     8.00     0  03:34        0.71
  WS02006242           JUNCTION     0.59     0.78     8.05     0  03:34        0.78
  WS02006243           JUNCTION     0.47     0.67     8.09     0  03:34        0.67
  WS02006245           JUNCTION     0.45     0.64     8.13     0  03:34        0.64
  WS02006247           JUNCTION     0.47     0.65     8.15     0  03:34        0.65
  WS02006248           JUNCTION     0.42     0.59     8.18     0  03:35        0.59
  WS02006249           JUNCTION     0.45     0.61     8.20     0  03:35        0.61
  WS02006239           JUNCTION     0.58     0.76     7.97     0  03:34        0.76
  WS02006251           JUNCTION     0.44     0.63     8.30     0  03:34        0.63
  WS02006252           JUNCTION     0.40     0.58     8.83     0  07:40        0.58
  WS02006253           JUNCTION     0.47     0.65     8.30     0  03:33        0.65
  WS02006256           JUNCTION     1.02     1.21     8.14     0  03:34        1.21
  WS02004138           JUNCTION     0.15     0.19     7.44     0  03:42        0.19
  WS02004407           JUNCTION     0.23     0.28     6.59     0  02:41        0.28
  WS02006228           JUNCTION     0.76     0.93     7.58     0  02:28        0.92
  WS02006229           JUNCTION     0.74     0.92     7.61     0  02:28        0.91
  WS02006280           JUNCTION     0.05     0.15     8.42     0  02:17        0.15
  WS02006284           JUNCTION     0.34     0.48     8.88     0  02:17        0.48
  WS02006287           JUNCTION     0.08     0.21     9.17     0  02:17        0.21
  WSF200               JUNCTION     0.23     0.29     5.52     0  02:46        0.29
  HS02004901           JUNCTION     0.11     0.23    10.06     0  02:15        0.23
  HS02004881           JUNCTION     0.01     0.02     9.05     0  02:17        0.02
  HS02004876           JUNCTION     0.03     0.10     9.13     0  02:15        0.10
  HS02004870           JUNCTION     0.01     0.04     9.33     0  02:17        0.04
  HS02004862           JUNCTION     0.01     0.05     9.43     0  02:18        0.05
  HS02004856           JUNCTION     0.07     0.10     9.53     0  02:17        0.10
  HS02004852           JUNCTION     0.01     0.03     9.54     0  02:19        0.03
  HS02004848           JUNCTION     0.01     0.03     9.63     0  02:17        0.03
  HS02004842           JUNCTION     0.33     0.36     9.63     0  02:16        0.36
  HS02004837           JUNCTION     0.03     0.05     9.63     0  02:17        0.05
  HS02004830           JUNCTION     0.04     0.06     9.53     0  02:17        0.06
  HS02004824           JUNCTION     0.02     0.04     9.44     0  02:20        0.04
  HS02004817           JUNCTION     0.42     0.53     9.37     0  02:18        0.53
  HS02004807           JUNCTION     0.11     0.20     9.37     0  02:18        0.20
  HS02004802           JUNCTION     0.15     0.24     9.37     0  02:18        0.24
  HS02004799           JUNCTION     0.10     0.26     9.47     0  02:16        0.26
  HS02004792           JUNCTION     0.02     0.10     9.62     0  02:15        0.10
  HS02004788           JUNCTION     0.02     0.07     9.97     0  02:16        0.07
  HS02004785           JUNCTION     0.03     0.14    10.04     0  02:15        0.14
  HS02004777           JUNCTION     0.13     0.25    10.05     0  02:15        0.25
  HS02004770           JUNCTION     0.10     0.22    10.06     0  02:15        0.22
  HS02004480           JUNCTION     0.06     0.20     9.44     0  02:16        0.20
  HS02004479           JUNCTION     0.10     0.24     9.44     0  02:16        0.24
  HS02004478           JUNCTION     0.05     0.13     9.36     0  02:17        0.13
  YS02001745           JUNCTION     0.08     0.12     7.64     0  02:58        0.12
  YS02001748           JUNCTION     0.28     0.41     7.49     0  03:04        0.40
  YS02001751           JUNCTION     0.46     0.61     7.49     0  03:05        0.61
  YS02001754           JUNCTION     0.71     0.88     7.49     0  03:06        0.88
  YS02001762           JUNCTION     0.91     1.13     7.53     0  03:03        1.12
  YS02001765           JUNCTION     0.86     1.08     7.53     0  03:03        1.06
  YS02001767           JUNCTION     0.83     1.02     7.51     0  03:03        1.00
  YS02001770           JUNCTION     0.82     0.99     7.49     0  03:04        0.99
  YS02001774           JUNCTION     0.89     1.07     7.49     0  03:02        1.07
  YS02001779           JUNCTION     0.64     0.81     7.50     0  03:01        0.81
  YS02001882           JUNCTION     0.28     0.46     7.17     0  02:48        0.46
  YS02001884           JUNCTION     0.38     0.56     7.17     0  02:50        0.56
  YS02001759           JUNCTION     0.94     1.16     7.52     0  03:03        1.14
  YS02001887           JUNCTION     0.45     0.64     7.17     0  02:49        0.64
  YS02001890           JUNCTION     0.48     0.67     7.17     0  02:49        0.67
  YS02001898           JUNCTION     0.26     0.42     7.16     0  02:52        0.42
  YS02001901           JUNCTION     0.37     0.55     7.16     0  02:51        0.55
  YS02001904           JUNCTION     0.35     0.52     7.15     0  02:51        0.52
  YS02001907           JUNCTION     0.68     0.87     7.15     0  02:51        0.87
  YS02001910           JUNCTION     0.47     0.65     7.16     0  02:51        0.65
  YS02001915           JUNCTION     0.27     0.44     7.15     0  02:50        0.44
  YS02001918           JUNCTION     0.08     0.10     7.16     0  03:03        0.10
  YS02001619           JUNCTION     0.42     0.58     7.50     0  03:05        0.58
  YS02001629           JUNCTION     0.77     0.95     7.50     0  03:03        0.95
  YS02001641           JUNCTION     0.88     1.08     7.52     0  03:03        1.06
  YS02001644           JUNCTION     0.88     1.08     7.51     0  03:03        1.06
  YS02001652           JUNCTION     0.73     0.90     7.50     0  03:05        0.89
  YS02001655           JUNCTION     0.49     0.65     7.50     0  03:02        0.64
  YS02001920           JUNCTION     0.17     0.21     7.21     0  03:02        0.21
  YS02001923           JUNCTION     0.06     0.08     7.34     0  03:02        0.08
  YS02001926           JUNCTION     0.14     0.18     7.62     0  03:01        0.18
  YS02001929           JUNCTION     0.07     0.09     7.78     0  03:01        0.09
  YS02001658           JUNCTION     0.22     0.35     7.50     0  03:02        0.35
  YS02001661           JUNCTION     0.14     0.20     7.60     0  02:43        0.20
  YS02001664           JUNCTION     0.07     0.12     8.04     0  02:43        0.12
  YS02001622           JUNCTION     0.44     0.59     7.50     0  03:02        0.59
  YS02001633           JUNCTION     0.86     1.06     7.51     0  03:03        1.04
  YS02001649           JUNCTION     0.92     1.11     7.50     0  03:03        1.10
  YS02001757           JUNCTION     1.04     1.23     7.50     0  03:03        1.23
  YS02001895           JUNCTION     0.25     0.42     7.17     0  02:49        0.42
  YS02001625           JUNCTION     0.72     0.90     7.50     0  03:05        0.89
  YS02163301           JUNCTION     0.80     0.99     7.50     0  03:03        0.99
  YS02163601           JUNCTION     0.92     1.12     7.52     0  03:03        1.11
  YS02164001           JUNCTION     0.86     1.06     7.52     0  03:03        1.05
  YS02001647           JUNCTION     0.71     0.89     7.50     0  03:03        0.88
  YSB1154              JUNCTION     0.24     0.39     9.45     0  02:16        0.39
  YSB6556              JUNCTION     0.13     0.28     9.44     0  02:16        0.28
  YSB1174              JUNCTION     0.19     0.34     9.44     0  02:16        0.34
  YSB1171              JUNCTION     0.39     0.54     9.44     0  02:16        0.54
  YS02006553           JUNCTION     0.68     0.87     7.15     0  02:51        0.87
  YS02006561           JUNCTION     0.14     0.23     6.89     0  02:50        0.23
  YS02006556           JUNCTION     0.66     0.84     7.15     0  02:51        0.84
  YS02006558           JUNCTION     0.70     0.88     7.15     0  02:50        0.88
  YS02001783           JUNCTION     0.25     0.66     6.80     0  03:06        0.63
  YS02001784           JUNCTION     0.28     0.72     6.79     0  03:06        0.69
  YS02001786           JUNCTION     0.25     0.72     6.75     0  03:06        0.68
  YS02001788           JUNCTION     0.19     0.75     6.73     0  03:06        0.73
  YS02001790           JUNCTION     0.25     1.96     7.60     0  03:03        1.03
  YS02001791           JUNCTION     0.20     2.72     8.19     0  03:02        1.17
  YS02001793           JUNCTION     0.22     2.68     7.51     0  03:00        1.78
  WS02004139           JUNCTION     0.60     0.73     5.64     0  03:50        0.73
  WSC                  OUTFALL      0.31     0.37     1.04     0  03:50        0.37
  3                    OUTFALL      0.07     0.20     6.20     0  03:34        0.20
  4                    OUTFALL      0.02     0.11     7.11     0  03:35        0.11
  5                    OUTFALL      0.00     0.00     5.00     0  00:00        0.00
  JK-storage           STORAGE      0.96     5.80     6.60     0  03:04        5.80
  CC-storage           STORAGE      0.28     0.43     7.43     0  05:20        0.43
  XR-storage           STORAGE      6.88     7.72     5.72     0  06:34        7.72
  
  
  *******************
  Node Inflow Summary
  *******************
  
  -------------------------------------------------------------------------------------------------
                                  Maximum  Maximum                  Lateral       Total        Flow
                                  Lateral    Total  Time of Max      Inflow      Inflow     Balance
                                   Inflow   Inflow   Occurrence      Volume      Volume       Error
  Node                 Type           LPS      LPS  days hr:min    10^6 ltr    10^6 ltr     Percent
  -------------------------------------------------------------------------------------------------
  WS02001211           JUNCTION      7.35   387.61     0  03:50       0.207        6.84       0.565
  WS02001212           JUNCTION      0.00   387.58     0  03:50           0        6.81       0.294
  WS02001213           JUNCTION      0.00   387.64     0  03:50           0        6.79       0.348
  WS02003069           JUNCTION      0.32   837.77     0  03:48     0.00902        14.5       0.211
  WS02003072           JUNCTION      0.00   837.77     0  03:48           0        14.5       0.255
  WS02003073           JUNCTION      1.82   839.59     0  03:49      0.0514        14.5       0.287
  WS02003060           JUNCTION     16.53   837.45     0  03:47       0.466        14.6       0.203
  WS02003066           JUNCTION      0.00   474.39     0  02:44           0        7.38       0.062
  WS02003059           JUNCTION      0.00   387.86     0  03:51           0        6.77       0.611
  WS02003067           JUNCTION      0.00   474.38     0  02:44           0        7.39       0.131
  WS02004401           JUNCTION      0.00   475.18     0  02:39           0        7.64       0.308
  WS02004402           JUNCTION      0.00   475.03     0  02:40           0        7.62       0.287
  WS02004403           JUNCTION      0.00   474.96     0  02:40           0         7.6       0.259
  WS02004404           JUNCTION      0.16   475.09     0  02:40     0.00457        7.58       0.193
  WS02004406           JUNCTION      0.00   475.11     0  02:41           0        7.55       0.469
  WS02004409           JUNCTION      0.00   475.09     0  02:41           0         7.5       0.239
  WS02004410           JUNCTION      0.00   474.82     0  02:42           0        7.49       0.264
  WS02004411           JUNCTION      0.00   474.61     0  02:42           0        7.47       0.268
  WS02004412           JUNCTION      0.00   474.48     0  02:43           0        7.45       0.286
  WS02004413           JUNCTION      0.00   474.40     0  02:43           0        7.43       0.419
  WS02004405           JUNCTION      0.04   475.12     0  02:41     0.00107        7.57       0.287
  WS02006109           JUNCTION      1.23   477.63     0  02:28      0.0347        7.75       0.293
  WS02006110           JUNCTION      0.00   477.65     0  02:28           0        7.73       0.279
  WS02006111           JUNCTION      0.00   492.36     0  02:29           0         7.7       0.066
  WS02006112           JUNCTION      9.64   485.12     0  02:29      0.0263        7.72       0.405
  WS02006113           JUNCTION      0.00   477.72     0  02:28           0        7.71       0.153
  WS02006115           JUNCTION      0.00   480.21     0  02:29           0        7.69       0.298
  WS02006116           JUNCTION      0.00   475.47     0  02:38           0        7.66       0.280
  WS02006230           JUNCTION     10.28   400.06     0  03:41        0.29        6.86       0.232
  WS02006231           JUNCTION      0.00   389.67     0  03:41           0        6.58       0.201
  WS02006232           JUNCTION      0.00   389.66     0  03:41           0         6.6       0.266
  WS02006234           JUNCTION      0.00   389.95     0  07:16           0        6.61       0.157
  WS02006235           JUNCTION      0.00   390.23     0  07:16           0        6.65       0.180
  WS02006238           JUNCTION      0.00   336.30     0  06:11           0        4.91       0.169
  WS02006240           JUNCTION      0.00   336.67     0  06:11           0        4.91       0.319
  WS02006242           JUNCTION      0.00   338.48     0  03:11           0        4.92       0.382
  WS02006243           JUNCTION      0.00   341.99     0  03:10           0        4.92       0.055
  WS02006245           JUNCTION      0.00   344.19     0  03:10           0        4.93       0.281
  WS02006247           JUNCTION      0.00   347.98     0  07:41           0        4.94       0.212
  WS02006248           JUNCTION      0.00   353.20     0  07:41           0        4.95       0.154
  WS02006249           JUNCTION      0.00   405.71     0  03:34           0        5.37       0.274
  WS02006239           JUNCTION      0.00   338.12     0  06:11           0        4.91       0.257
  WS02006251           JUNCTION      0.08   407.23     0  03:10     0.00217        5.41       0.263
  WS02006252           JUNCTION      0.00   400.00     0  03:30           0        5.24       0.010
  WS02006253           JUNCTION      1.47    42.47     0  02:16     0.00341       0.183       4.640
  WS02006256           JUNCTION      0.00   600.00     0  03:30           0        4.07       0.074
  WS02004138           JUNCTION      0.00   380.00     0  03:40           0        6.67       0.057
  WS02004407           JUNCTION      0.00   475.10     0  02:41           0        7.51       0.112
  WS02006228           JUNCTION      0.00   476.38     0  02:28           0        7.73       0.205
  WS02006229           JUNCTION      0.00   476.47     0  02:28           0        7.75       0.175
  WS02006280           JUNCTION      0.00   217.53     0  02:17           0       0.907       0.008
  WS02006284           JUNCTION      0.10   217.52     0  02:17      0.0027       0.908       0.117
  WS02006287           JUNCTION      0.00   217.38     0  02:17           0       0.906       0.080
  WSF200               JUNCTION      0.00   474.38     0  02:44           0        7.38       0.060
  HS02004901           JUNCTION     11.93    11.93     0  02:09      0.0317      0.0318       5.839
  HS02004881           JUNCTION      4.82    41.35     0  02:16      0.0138       0.145       0.227
  HS02004876           JUNCTION      7.65    36.85     0  02:17      0.0265       0.132       0.400
  HS02004870           JUNCTION      8.49    29.37     0  02:17      0.0262       0.106       0.101
  HS02004862           JUNCTION      6.94    21.46     0  02:17      0.0318      0.0798       0.212
  HS02004856           JUNCTION      6.29    14.58     0  02:17      0.0197      0.0494       2.994
  HS02004852           JUNCTION      0.00     8.69     0  02:17           0      0.0298       0.170
  HS02004848           JUNCTION     13.82    13.82     0  02:19      0.0624      0.0624       0.070
  HS02004842           JUNCTION      0.00     5.61     0  02:29           0      0.0456      39.897
  HS02004837           JUNCTION     19.93    24.68     0  02:16       0.225       0.257       0.317
  HS02004830           JUNCTION      0.15    24.82     0  02:17     0.00423       0.248       0.500
  HS02004824           JUNCTION     15.50    40.13     0  02:20      0.0817       0.328       0.164
  HS02004817           JUNCTION      0.60    40.73     0  02:20      0.0169       0.344       5.084
  HS02004807           JUNCTION     15.97    55.26     0  02:18      0.0481       0.376       1.137
  HS02004802           JUNCTION      0.00    55.58     0  02:20           0       0.372       1.104
  HS02004799           JUNCTION     12.29   138.29     0  02:15      0.0389       0.471       0.485
  HS02004792           JUNCTION     54.98   126.28     0  02:14        0.17       0.433       0.095
  HS02004788           JUNCTION     18.33    73.52     0  02:15       0.101       0.264       0.149
  HS02004785           JUNCTION      0.15    55.60     0  02:15     0.00423       0.164       0.294
  HS02004777           JUNCTION      0.03    55.95     0  02:13    0.000846       0.165       3.243
  HS02004770           JUNCTION     46.61    57.20     0  02:11       0.135       0.166       1.906
  HS02004480           JUNCTION      0.00   163.02     0  02:15           0        0.55       0.132
  HS02004479           JUNCTION      0.00    25.28     0  02:18           0       0.091       0.808
  HS02004478           JUNCTION      0.00   217.38     0  02:17           0       0.906       0.069
  YS02001745           JUNCTION     76.78    76.78     0  02:58       0.836       0.836       0.101
  YS02001748           JUNCTION      0.04    76.82     0  02:58     0.00127       0.854      -0.034
  YS02001751           JUNCTION      0.01   112.40     0  02:51     0.00031       0.859       0.623
  YS02001754           JUNCTION      0.26    92.00     0  02:55     0.00733       0.868       1.288
  YS02001762           JUNCTION      0.00   130.06     0  02:40           0       0.948       1.721
  YS02001765           JUNCTION      0.00   124.97     0  02:36           0       0.944       1.847
  YS02001767           JUNCTION      0.54   124.26     0  02:58      0.0151       0.953       2.603
  YS02001770           JUNCTION     99.01   128.33     0  02:59       0.977        1.07       1.928
  YS02001774           JUNCTION      0.00    44.35     0  02:14           0       0.188      10.400
  YS02001779           JUNCTION      0.01    32.78     0  04:09    0.000141      0.0805       9.831
  YS02001882           JUNCTION      0.00     4.34     0  02:09           0     0.00532      46.031
  YS02001884           JUNCTION      0.00    12.01     0  02:06           0      0.0213      29.708
  YS02001759           JUNCTION     96.94   208.28     0  02:58       0.912        1.83       1.024
  YS02001887           JUNCTION    128.09   128.09     0  02:40        1.09         1.1       0.656
  YS02001890           JUNCTION      0.00   128.00     0  02:42           0        1.07       0.736
  YS02001898           JUNCTION      0.00   127.71     0  02:43           0        1.06       0.207
  YS02001901           JUNCTION      0.00   127.53     0  02:43           0        1.06       0.523
  YS02001904           JUNCTION      0.00   126.89     0  02:42           0        1.06       0.486
  YS02001907           JUNCTION      0.00   228.68     0  02:53           0        2.27       0.980
  YS02001910           JUNCTION      0.00   104.23     0  03:00           0        1.22       0.837
  YS02001915           JUNCTION     68.86   103.63     0  03:01       0.715        1.23       0.373
  YS02001918           JUNCTION      0.00    35.27     0  03:02           0       0.513       0.221
  YS02001619           JUNCTION     66.93    66.93     0  02:55       0.706       0.706       0.236
  YS02001629           JUNCTION      0.00    88.97     0  02:52           0       0.682       1.247
  YS02001641           JUNCTION      0.00   150.61     0  03:04           0        1.46       1.064
  YS02001644           JUNCTION     72.93   221.40     0  03:04       0.803        2.24       0.844
  YS02001652           JUNCTION      0.00   109.37     0  02:37           0       0.813       1.412
  YS02001655           JUNCTION      0.15   119.31     0  03:03     0.00434       0.821       0.762
  YS02001920           JUNCTION      2.87    35.29     0  03:02      0.0809       0.515       0.400
  YS02001923           JUNCTION      0.04    32.43     0  03:01     0.00106       0.435       0.070
  YS02001926           JUNCTION      0.05    32.45     0  03:01     0.00147       0.436       0.499
  YS02001929           JUNCTION     32.41    32.41     0  03:01       0.434       0.434       0.068
  YS02001658           JUNCTION      0.00    90.67     0  02:43           0       0.817       0.041
  YS02001661           JUNCTION      0.00    90.67     0  02:43           0       0.796       0.087
  YS02001664           JUNCTION     90.67    90.67     0  02:43       0.796       0.796       0.021
  YS02001622           JUNCTION      0.00    83.64     0  02:50           0       0.704       0.858
  YS02001633           JUNCTION     74.14   153.64     0  03:04       0.827        1.49       1.525
  YS02001649           JUNCTION      0.00   312.94     0  02:53           0        2.99       0.938
  YS02001757           JUNCTION      0.00   563.65     0  03:03           0        5.57       1.458
  YS02001895           JUNCTION      0.00   127.63     0  02:43           0        1.07       0.352
  YS02001625           JUNCTION      0.00    84.61     0  03:05           0       0.699       2.928
  YS02163301           JUNCTION      0.00    94.46     0  03:03           0       0.683       2.281
  YS02163601           JUNCTION      0.11   148.45     0  03:04      0.0031        1.46       1.580
  YS02164001           JUNCTION      0.00   151.02     0  03:04           0        1.45       0.986
  YS02001647           JUNCTION      0.00   223.19     0  03:01           0         2.2       0.704
  YSB1154              JUNCTION     13.60    13.60     0  02:14      0.0472      0.0485       3.067
  YSB6556              JUNCTION      0.00    13.56     0  02:17           0      0.0495       2.583
  YSB1174              JUNCTION     13.59    13.59     0  02:09      0.0344      0.0354       3.761
  YSB1171              JUNCTION      0.00    25.32     0  02:15           0      0.0904       7.515
  YS02006553           JUNCTION      0.00   228.75     0  02:54           0        2.26       0.635
  YS02006561           JUNCTION      0.00   339.67     0  02:50           0         3.2       0.021
  YS02006556           JUNCTION      0.00   228.84     0  02:54           0        2.27       0.459
  YS02006558           JUNCTION    108.19   335.91     0  02:50       0.991        3.23       0.140
  YS02001783           JUNCTION      0.00   335.89     0  02:50           0         3.2       0.048
  YS02001784           JUNCTION      1.06   400.81     0  03:06      0.0299        3.23       0.078
  YS02001786           JUNCTION      0.06   384.68     0  03:07     0.00159        3.23       0.077
  YS02001788           JUNCTION      0.07   411.15     0  03:07       0.002        3.23       0.045
  YS02001790           JUNCTION      0.15   389.17     0  03:07     0.00437        3.23       0.050
  YS02001791           JUNCTION      0.00   401.52     0  03:26           0        3.23       0.017
  YS02001793           JUNCTION      0.00   476.08     0  03:00           0        3.23       0.004
  WS02004139           JUNCTION      0.32   380.32     0  03:42     0.00905        6.67       0.549
  WSC                  OUTFALL       0.00   839.58     0  03:50           0        14.5       0.000
  3                    OUTFALL       0.00   506.31     0  03:34           0         2.3       0.000
  4                    OUTFALL       0.00   110.42     0  03:35           0       0.404       0.000
  5                    OUTFALL       0.00     0.00     0  00:00           0           0       0.000 ltr
  JK-storage           STORAGE       0.00   600.73     0  02:59           0        3.38     -20.514
  CC-storage           STORAGE       0.00   561.36     0  03:02           0        5.46      -0.008
  XR-storage           STORAGE     324.79   324.79     0  02:50        7.04        7.64       0.000
  
  
  **********************
  Node Surcharge Summary
  **********************
  
  Surcharging occurs when water rises above the top of the highest conduit.
  ---------------------------------------------------------------------
                                               Max. Height   Min. Depth
                                   Hours       Above Crown    Below Rim
  Node                 Type      Surcharged         Meters       Meters
  ---------------------------------------------------------------------
  WS02006109           JUNCTION        2.10          0.082        1.738
  WS02006232           JUNCTION        2.35          0.056        1.424
  WS02006235           JUNCTION        0.69          0.043        1.247
  WS02006238           JUNCTION        1.41          0.062        1.368
  WS02006240           JUNCTION        0.09          0.001        1.389
  WS02006242           JUNCTION        0.87          0.051        0.769
  WS02006239           JUNCTION        0.24          0.017        1.273
  WS02006252           JUNCTION        2.90          0.185        0.915
  WS02006228           JUNCTION        1.87          0.096        2.104
  YS02001762           JUNCTION        3.52          0.133        1.017
  YS02001765           JUNCTION        1.01          0.084        1.016
  YS02001767           JUNCTION        0.03          0.018        1.012
  YS02001774           JUNCTION        2.85          0.067        0.983
  YS02001759           JUNCTION        3.85          0.157        1.053
  YS02001641           JUNCTION        2.15          0.079        1.021
  YS02001644           JUNCTION        2.35          0.083        0.837
  YS02001633           JUNCTION        0.32          0.037        1.023
  YS02001649           JUNCTION        3.59          0.106        0.944
  YS02001757           JUNCTION        4.53          0.234        0.976
  YS02163601           JUNCTION        3.55          0.119        0.961
  YS02164001           JUNCTION        0.75          0.059        1.041
  YS02001790           JUNCTION        0.34          1.157        0.000
  YS02001791           JUNCTION        0.39          1.920        0.000
  YS02001793           JUNCTION        0.47          1.677        0.923
  
  
  *********************
  Node Flooding Summary
  *********************
  
  Flooding refers to all water that overflows a node, whether it ponds or not.
  --------------------------------------------------------------------------
                                                             Total   Maximum
                                 Maximum   Time of Max       Flood    Ponded
                        Hours       Rate    Occurrence      Volume     Depth
  Node                 Flooded       LPS   days hr:min    10^6 ltr    Meters
  --------------------------------------------------------------------------
  YS02001790              0.01    127.98      0  03:03       0.000     0.000
  YS02001791              0.01    161.64      0  03:02       0.000     0.000
  JK-storage              0.25    389.40      0  03:07       0.186     0.000
  XR-storage              0.55    138.40      0  07:00       0.129     0.000
  
  
  **********************
  Storage Volume Summary
  **********************
  
  --------------------------------------------------------------------------------------------------
                         Average     Avg  Evap Exfil       Maximum     Max    Time of Max    Maximum
                          Volume    Pcnt  Pcnt  Pcnt        Volume    Pcnt     Occurrence    Outflow
  Storage Unit           1000 m3    Full  Loss  Loss       1000 m3    Full    days hr:min        LPS
  --------------------------------------------------------------------------------------------------
  JK-storage               0.048      17     0     0         0.291     100       0  03:04     600.00
  CC-storage               0.784       5     0     0         1.198       8       0  05:20     400.00
  XR-storage               0.825      89     0     0         0.926     100       0  06:34     380.00
  
  
  ***********************
  Outfall Loading Summary
  ***********************
  
  -----------------------------------------------------------
                         Flow       Avg       Max       Total
                         Freq      Flow      Flow      Volume
  Outfall Node           Pcnt       LPS       LPS    10^6 ltr
  -----------------------------------------------------------
  WSC                   99.99    603.25    839.58      14.484
  3                     81.23    142.50    506.31       2.300
  4                     42.51     42.14    110.42       0.404
  5                      0.00      0.00      0.00       0.000
  -----------------------------------------------------------
  System                55.93    787.89   1399.05      17.189
  
  
  ********************
  Link Flow Summary
  ********************
  
  -----------------------------------------------------------------------------
                                 Maximum  Time of Max   Maximum    Max/    Max/
                                  |Flow|   Occurrence   |Veloc|    Full    Full
  Link                 Type          LPS  days hr:min     m/sec    Flow   Depth
  -----------------------------------------------------------------------------
  WS02003066WSF200     CONDUIT    474.38     0  02:44      2.70    0.08    0.22
  WS02006287WS02006284 CONDUIT    217.42     0  02:17      1.65    0.10    0.22
  WS02006284WS02006280 CONDUIT    217.53     0  02:17      1.89    0.09    0.20
  WS02006280WS02006229 CONDUIT    217.53     0  02:17      3.04    0.05    0.15
  WS02006229WS02006228 CONDUIT    476.38     0  02:28      0.95    1.58    1.00
  WS02006256WS02006235 CONDUIT    166.25     0  00:01      2.58    1.76    1.00
  WS02006253WS02006251 CONDUIT     42.74     0  02:17      0.50    0.13    0.90
  WS02006252WS02006251 CONDUIT    400.23     0  07:40      3.18    1.47    1.00
  WS02006251WS02006249 CONDUIT    405.71     0  03:34      1.17    1.17    0.88
  WS02006249WS02006248 CONDUIT    353.20     0  07:41      1.15    1.93    0.84
  WS02006248WS02006247 CONDUIT    347.98     0  07:41      1.11    0.76    0.88
  WS02006247WS02006245 CONDUIT    344.19     0  03:10      1.07    2.73    0.92
  WS02006245WS02006243 CONDUIT    341.99     0  03:10      1.07    1.01    0.93
  WS02006243WS02006242 CONDUIT    338.48     0  03:11      0.96    0.72    0.98
  WS02006242WS02006240 CONDUIT    336.67     0  06:11      0.93    1.34    1.00
  WS02006240WS02006239 CONDUIT    338.12     0  06:11      0.97    1.06    1.00
  WS02006239WS02006238 CONDUIT    336.30     0  06:11      0.92    1.08    1.00
  WS02006238WS02006235 CONDUIT    335.84     0  06:12      1.25    0.75    1.00
  WS02006235WS02006234 CONDUIT    389.95     0  07:16      1.05    4.11    0.99
  WS02006234WS02006232 CONDUIT    389.66     0  03:41      1.13    0.79    1.00
  WS02006232WS02006231 CONDUIT    389.67     0  03:41      1.06    0.82    0.93
  WS02006231WS02006230 CONDUIT    389.78     0  03:41      1.34    5.91    0.80
  WS02006230WS02006229 CONDUIT    400.28     0  03:41      1.04    8.91    1.00
  WS02006228WS02006109 CONDUIT    476.40     0  02:28      0.95    2.08    1.00
  WS02006116WS02004401 CONDUIT    475.18     0  02:39      0.73    0.65    0.79
  WS02006115WS02006116 CONDUIT    475.47     0  02:38      0.82    0.61    0.71
  WS02006113WS02006111 CONDUIT    492.36     0  02:29      2.35    0.59    0.43
  WS02006112WS02006115 CONDUIT    480.21     0  02:29      0.70    0.28    0.84
  WS02006111WS02006112 CONDUIT    479.28     0  02:29      1.36    0.23    0.66
  WS02006110WS02006113 CONDUIT    477.72     0  02:28      1.16    0.43    0.77
  WS02006109WS02006110 CONDUIT    477.65     0  02:28      0.96    0.92    0.98
  WS02004411WS02004412 CONDUIT    474.48     0  02:43      0.87    0.67    0.66
  WS02004401WS02004402 CONDUIT    475.03     0  02:40      0.77    0.57    0.82
  WS02004413WS02003067 CONDUIT    474.38     0  02:44      1.04    0.20    0.56
  WS02004412WS02004413 CONDUIT    474.40     0  02:43      0.76    0.32    0.74
  WS02004410WS02004411 CONDUIT    474.61     0  02:42      0.89    0.65    0.64
  WS02004409WS02004410 CONDUIT    474.82     0  02:42      0.92    0.61    0.63
  WS02004407WS02004409 CONDUIT    475.09     0  02:41      1.42    0.17    0.45
  WS02004406WS02004407 CONDUIT    475.10     0  02:41      0.97    0.21    0.60
  WS02004405WS02004406 CONDUIT    475.11     0  02:41      0.66    0.94    0.92
  WS02004404WS02004405 CONDUIT    475.08     0  02:41      0.84    4.65    0.92
  WS02004403WS02004404 CONDUIT    474.93     0  02:40      0.74    0.34    0.89
  WS02004402WS02004403 CONDUIT    474.96     0  02:40      0.75    0.68    0.84
  WS02004139WS02001211 CONDUIT    380.26     0  03:50      0.58    0.48    0.59
  WS02004138WS02004139 CONDUIT    380.00     0  03:42      2.39    0.08    0.44
  WS02003067WS02003066 CONDUIT    474.39     0  02:44      1.13    0.15    0.40
  WS02001213WS02003059 CONDUIT    387.86     0  03:51      0.67    0.64    0.75
  WS02001212WS02001213 CONDUIT    387.64     0  03:50      1.29    0.60    0.45
  WS02001211WS02001212 CONDUIT    387.58     0  03:50      0.76    0.30    0.64
  WS02003072WS02003073 CONDUIT    837.77     0  03:49      1.66    1.81    0.46
  WS02003069WS02003072 CONDUIT    837.77     0  03:48      1.56    0.40    0.48
  WS02003060WS02003069 CONDUIT    837.45     0  03:48      1.81    0.33    0.43
  WS02003059WS02003060 CONDUIT    388.30     0  03:51      0.91    0.25    0.63
  HS02004901HS02004770 CONDUIT     10.98     0  02:14      0.05    0.04    0.33
  HS02004876HS02004881 CONDUIT     36.94     0  02:17      0.59    0.39    0.09
  HS02004870HS02004876 CONDUIT     29.35     0  02:17      0.41    0.02    0.10
  HS02004842HS02004848 CONDUIT      5.61     0  02:29      0.03    0.00    0.28
  HS02004837HS02004842 CONDUIT      5.81     0  02:30      0.41    0.00    0.29
  HS02004830HS02004837 CONDUIT     24.67     0  02:17      0.45    0.02    0.08
  HS02004824HS02004830 CONDUIT     24.81     0  02:17      0.49    0.03    0.07
  HS02004817HS02004824 CONDUIT     40.13     0  02:20      0.17    0.02    0.40
  HS02004770HS02004777 CONDUIT     55.92     0  02:13      0.24    0.10    0.34
  HS02004799HS02004480 CONDUIT    138.09     0  02:15      0.61    0.17    0.32
  HS02004792HS02004799 CONDUIT    126.20     0  02:15      0.70    0.08    0.26
  HS02004788HS02004792 CONDUIT     73.46     0  02:16      0.85    0.05    0.12
  HS02004785HS02004788 CONDUIT     55.50     0  02:16      0.53    0.42    0.15
  HS02004777HS02004785 CONDUIT     55.45     0  02:15      0.29    0.07    0.28
  HS02004480HS02004478 CONDUIT    162.94     0  02:16      0.99    0.69    0.24
  HS02004479HS02004480 CONDUIT     25.53     0  02:18      0.16    0.02    0.31
  HS02004862HS02004870 CONDUIT     21.42     0  02:18      0.48    0.02    0.06
  HS02004848HS02004852 CONDUIT      8.69     0  02:17      0.32    0.01    0.04
  HS02004856HS02004862 CONDUIT     14.54     0  02:17      0.35    0.01    0.06
  HS02004852HS02004856 CONDUIT      8.65     0  02:19      0.13    0.01    0.09
  HS02004802HS02004478 CONDUIT     56.01     0  02:21      0.31    0.05    0.26
  HS02004478WS02006287 CONDUIT    217.38     0  02:17      1.35    0.06    0.18
  HS02004817HS02004807 CONDUIT     41.32     0  02:22      0.11    0.02    0.52
  HS02004807HS02004802 CONDUIT     55.58     0  02:20      0.26    0.11    0.31
  YS02001759YS02001757 CONDUIT    210.11     0  02:58      0.27    0.15    1.00
  YS02001762YS02001759 CONDUIT    113.02     0  02:58      0.18    0.13    1.00
  YS02001765YS02001762 CONDUIT    130.06     0  02:40      0.23    0.12    1.00
  YS02001770YS02001767 CONDUIT    123.73     0  02:58      0.31    0.49    1.00
  YS02001774YS02001770 CONDUIT     44.35     0  02:14      0.14    0.03    0.98
  YS02001779YS02001774 CONDUIT     35.02     0  04:09      0.07    0.02    0.91
  YS02001649YS02001757 CONDUIT    314.52     0  02:53      0.40    0.19    1.00
  YS02001767YS02001765 CONDUIT    124.97     0  02:36      0.26    0.16    1.00
  YS02006561YS02001783 CONDUIT    335.89     0  02:50      1.82    0.17    0.55
  YS02001783YS02001784 CONDUIT    399.75     0  03:06      1.26    0.55    0.82
  YS02001784YS02001785 CONDUIT    384.63     0  03:07      1.34    0.90    0.90
  YS02001788YS02001790 CONDUIT    389.01     0  03:07      1.91    0.29    0.97
  YS02001790YS02001791 CONDUIT    401.52     0  03:26      2.25    0.44    1.00
  YS02001791YS02001793 CONDUIT    476.08     0  03:00      4.49    0.20    1.00
  YS02001910YS02001907 CONDUIT    104.44     0  03:01      0.49    0.06    0.75
  YS02001786YS02001788 CONDUIT    411.08     0  03:07      1.80    0.79    0.91
  YS02001915YS02001910 CONDUIT    104.23     0  03:00      0.45    0.05    0.54
  YS02001918YS02001915 CONDUIT     35.26     0  03:03      0.44    0.02    0.27
  YS02001923YS02001920 CONDUIT     32.42     0  03:02      0.46    0.01    0.14
  YS02001926YS02001923 CONDUIT     32.39     0  03:01      0.50    0.05    0.14
  YS02001929YS02001926 CONDUIT     32.39     0  03:01      0.53    0.02    0.13
  YS02001920YS02001918 CONDUIT     35.27     0  03:02      0.47    0.03    0.15
  YS02001629YS02163301 CONDUIT     94.46     0  03:03      0.12    0.12    0.97
  YS02001619YS02001622 CONDUIT     83.64     0  02:50      0.66    0.12    0.58
  YS02001622YS02001625 CONDUIT     84.61     0  03:05      0.26    0.05    0.74
  YS02001625YS02001629 CONDUIT     88.97     0  02:52      0.26    0.04    0.73
  YS02163301YS02001633 CONDUIT     81.50     0  03:04      0.10    0.08    0.99
  YS02163601YS02164001 CONDUIT    151.02     0  03:04      0.19    0.13    1.00
  YS02164001YS02001641 CONDUIT    150.61     0  03:04      0.19    0.21    1.00
  YS02001641YS02001644 CONDUIT    150.33     0  03:04      0.19    0.49    1.00
  YS02001647YS02001649 CONDUIT    234.95     0  03:03      0.31    0.12    0.94
  YS02006553YS02006556 CONDUIT    228.84     0  02:54      0.33    0.20    0.83
  YS02006556YS02006558 CONDUIT    228.87     0  02:54      0.32    0.18    0.86
  YSB6556YSB1171       CONDUIT     13.82     0  02:18      0.06    0.01    0.58
  YS02001907YS02006553 CONDUIT    228.75     0  02:54      0.27    0.27    0.95
  YS02006558YS02006561 CONDUIT    339.67     0  02:50      2.36    0.75    0.51
  YS02001633YS02163601 CONDUIT    148.34     0  03:04      0.19    0.16    1.00
  YS02001644YS02001647 CONDUIT    223.19     0  03:01      0.29    0.13    0.94
  YS02001745YS02001748 CONDUIT     76.78     0  02:58      1.42    0.03    0.22
  YS02001748YS02001751 CONDUIT    112.38     0  02:51      1.11    0.06    0.50
  YS02001751YS02001754 CONDUIT     91.74     0  02:55      0.98    0.04    0.72
  YS02001754YS02001757 CONDUIT    100.09     0  02:52      0.33    0.04    0.94
  YS02001882YS02001884 CONDUIT      4.34     0  02:09      0.06    0.00    0.48
  YS02001884YS02001887 CONDUIT     12.01     0  02:06      0.06    0.02    0.57
  YS02001890YS02001895 CONDUIT    127.63     0  02:43      0.29    0.06    0.54
  YS02001895YS02001898 CONDUIT    127.71     0  02:43      0.49    0.22    0.40
  YS02001898YS02001901 CONDUIT    127.53     0  02:43      0.34    0.08    0.48
  YS02001901YS02001904 CONDUIT    126.89     0  02:42      0.30    0.20    0.54
  YS02001904YS02001907 CONDUIT    126.78     0  02:43      0.22    0.04    0.69
  YS02001887YS02001890 CONDUIT    128.00     0  02:42      0.25    0.22    0.63
  YS02001652YS02001649 CONDUIT    129.49     0  02:38      0.33    0.06    0.95
  YS02001655YS02001652 CONDUIT    109.37     0  02:37      1.05    0.05    0.76
  YS02001658YS02001655 CONDUIT    119.16     0  03:03      1.27    0.05    0.49
  YS02001661YS02001658 CONDUIT     90.67     0  02:43      1.47    0.04    0.24
  YS02001664YS02001661 CONDUIT     90.67     0  02:43      1.14    0.03    0.16
  YSB1154YSB6556       CONDUIT     13.56     0  02:17      0.19    0.02    0.47
  YSB1174YSB1171       CONDUIT     12.63     0  02:10      0.06    0.02    0.59
  YSB1171HS02004479    CONDUIT     25.28     0  02:18      0.54    0.02    0.46
  HS02004881HS02006253 CONDUIT     41.34     0  02:17      1.70    0.01    0.23
  YS02001793JiankangQianchi CONDUIT    600.73     0  02:59     12.19    0.05    1.00
  YS02001757CaochengTiaoxuchi CONDUIT    561.36     0  03:02      1.20    0.25    0.71
  WSF200WS02003060     CONDUIT    474.22     0  02:47      1.75    0.11    0.31
  1                    CONDUIT    839.58     0  03:50      3.17    0.29    0.37
  2                    CONDUIT    110.42     0  03:35      4.98    0.26    0.35
  3                    CONDUIT    506.31     0  03:34      9.81    0.81    0.69
  4                    CONDUIT      0.00     0  00:00      0.00    0.00    0.00
  CC-Pump-1            PUMP       200.00     0  03:10              1.00
  CC-Pump-2            PUMP       200.00     0  02:21              1.00
  JK-Pump-1            PUMP       300.00     0  03:30              1.00
  JK-Pump-2            PUMP       300.00     0  00:00              1.00
  XR-Pump-1            PUMP        95.00     0  00:00              1.00
  XR-Pump-2            PUMP        95.00     0  00:20              1.00
  XR-Pump-3            PUMP        95.00     0  00:30              1.00
  XR-Pump-4            PUMP        95.00     0  01:10              1.00
  
  
  ***************************
  Flow Classification Summary
  ***************************
  
  -------------------------------------------------------------------------------------
                      Adjusted    ---------- Fraction of Time in Flow Class ---------- 
                       /Actual         Up    Down  Sub   Sup   Up    Down  Norm  Inlet 
  Conduit               Length    Dry  Dry   Dry   Crit  Crit  Crit  Crit  Ltd   Ctrl  
  -------------------------------------------------------------------------------------
  WS02003066WSF200        1.00   0.05  0.01  0.00  0.00  0.94  0.00  0.00  0.75  0.00
  WS02006287WS02006284    1.00   0.04  0.01  0.00  0.70  0.25  0.00  0.00  0.77  0.00
  WS02006284WS02006280    1.00   0.05  0.00  0.00  0.00  0.00  0.00  0.95  0.00  0.00
  WS02006280WS02006229    1.00   0.05  0.00  0.00  0.00  0.00  0.00  0.95  0.00  0.00
  WS02006229WS02006228    1.00   0.00  0.00  0.00  0.99  0.00  0.00  0.01  0.00  0.00
  WS02006256WS02006235    1.00   0.00  0.00  0.00  1.00  0.00  0.00  0.00  0.00  0.00
  WS02006253WS02006251    1.00   0.03  0.01  0.00  0.96  0.00  0.00  0.00  0.00  0.00
  WS02006252WS02006251    1.00   0.08  0.00  0.00  0.00  0.00  0.92  0.00  0.00  0.00
  WS02006251WS02006249    1.00   0.00  0.00  0.00  1.00  0.00  0.00  0.00  0.26  0.00
  WS02006249WS02006248    1.00   0.00  0.02  0.00  0.91  0.00  0.07  0.00  0.00  0.00
  WS02006248WS02006247    1.00   0.02  0.00  0.00  0.98  0.00  0.00  0.00  0.17  0.00
  WS02006247WS02006245    1.00   0.02  0.00  0.00  0.98  0.00  0.00  0.00  0.00  0.00
  WS02006245WS02006243    1.00   0.01  0.00  0.00  0.94  0.00  0.00  0.04  0.01  0.00
  WS02006243WS02006242    1.00   0.01  0.00  0.00  0.99  0.00  0.00  0.00  0.26  0.00
  WS02006242WS02006240    1.00   0.00  0.00  0.00  1.00  0.00  0.00  0.00  0.00  0.00
  WS02006240WS02006239    1.00   0.00  0.00  0.00  0.96  0.00  0.00  0.04  0.01  0.00
  WS02006239WS02006238    1.00   0.00  0.00  0.00  1.00  0.00  0.00  0.00  0.00  0.00
  WS02006238WS02006235    1.00   0.00  0.00  0.00  1.00  0.00  0.00  0.00  0.00  0.00
  WS02006235WS02006234    1.00   0.00  0.00  0.00  0.95  0.00  0.05  0.00  0.00  0.00
  WS02006234WS02006232    1.00   0.00  0.00  0.00  1.00  0.00  0.00  0.00  0.00  0.00
  WS02006232WS02006231    1.00   0.00  0.00  0.00  0.99  0.00  0.00  0.00  0.00  0.00
  WS02006231WS02006230    1.00   0.00  0.00  0.00  0.71  0.00  0.28  0.00  0.00  0.00
  WS02006230WS02006229    1.00   0.00  0.00  0.00  0.98  0.00  0.00  0.02  0.01  0.00
  WS02006228WS02006109    1.00   0.00  0.00  0.00  1.00  0.00  0.00  0.00  0.00  0.00
  WS02006116WS02004401    1.00   0.03  0.00  0.00  0.97  0.00  0.00  0.00  0.00  0.00
  WS02006115WS02006116    1.00   0.03  0.00  0.00  0.97  0.00  0.00  0.01  0.00  0.00
  WS02006113WS02006111    1.00   0.02  0.00  0.00  0.00  0.98  0.00  0.00  0.11  0.00
  WS02006112WS02006115    1.00   0.02  0.00  0.00  0.97  0.00  0.00  0.00  0.00  0.00
  WS02006111WS02006112    1.00   0.02  0.00  0.00  0.97  0.00  0.00  0.00  0.98  0.00
  WS02006110WS02006113    1.00   0.01  0.01  0.00  0.98  0.00  0.00  0.00  0.00  0.00
  WS02006109WS02006110    1.00   0.00  0.01  0.00  0.98  0.00  0.01  0.00  0.00  0.00
  WS02004411WS02004412    1.00   0.04  0.00  0.00  0.96  0.00  0.00  0.00  0.00  0.00
  WS02004401WS02004402    1.00   0.03  0.00  0.00  0.97  0.00  0.00  0.00  0.00  0.00
  WS02004413WS02003067    1.00   0.04  0.01  0.00  0.00  0.00  0.95  0.00  0.00  0.00
  WS02004412WS02004413    1.00   0.04  0.00  0.00  0.96  0.00  0.00  0.00  0.03  0.00
  WS02004410WS02004411    1.00   0.04  0.00  0.00  0.96  0.00  0.00  0.00  0.03  0.00
  WS02004409WS02004410    1.00   0.04  0.00  0.00  0.96  0.00  0.00  0.00  0.03  0.00
  WS02004407WS02004409    1.00   0.04  0.00  0.00  0.96  0.00  0.00  0.00  0.89  0.00
  WS02004406WS02004407    1.00   0.00  0.04  0.00  0.96  0.00  0.00  0.00  0.00  0.00
  WS02004405WS02004406    1.00   0.00  0.00  0.00  1.00  0.00  0.00  0.00  0.00  0.00
  WS02004404WS02004405    1.00   0.00  0.00  0.00  1.00  0.00  0.00  0.00  0.00  0.00
  WS02004403WS02004404    1.00   0.00  0.03  0.00  0.97  0.00  0.00  0.00  0.01  0.00
  WS02004402WS02004403    1.00   0.03  0.00  0.00  0.97  0.00  0.00  0.00  0.00  0.00
  WS02004139WS02001211    1.00   0.00  0.00  0.00  0.99  0.00  0.01  0.00  0.00  0.00
  WS02004138WS02004139    1.00   0.00  0.00  0.00  0.99  0.01  0.00  0.00  1.00  0.00
  WS02003067WS02003066    1.00   0.05  0.00  0.00  0.94  0.00  0.00  0.00  0.00  0.00
  WS02001213WS02003059    1.00   0.00  0.01  0.00  0.99  0.00  0.00  0.00  0.00  0.00
  WS02001212WS02001213    1.00   0.01  0.00  0.00  0.90  0.00  0.09  0.00  0.00  0.00
  WS02001211WS02001212    1.00   0.00  0.01  0.00  0.99  0.00  0.00  0.00  0.00  0.00
  WS02003072WS02003073    1.00   0.00  0.00  0.00  0.00  0.00  0.00  1.00  0.00  0.00
  WS02003069WS02003072    1.00   0.00  0.00  0.00  0.99  0.01  0.00  0.00  0.25  0.00
  WS02003060WS02003069    1.00   0.00  0.00  0.00  0.99  0.01  0.00  0.00  0.13  0.00
  WS02003059WS02003060    1.00   0.00  0.00  0.00  1.00  0.00  0.00  0.00  0.02  0.00
  HS02004901HS02004770    1.00   0.04  0.00  0.00  0.95  0.00  0.00  0.00  0.02  0.00
  HS02004876HS02004881    1.00   0.02  0.00  0.00  0.98  0.00  0.00  0.00  0.00  0.00
  HS02004870HS02004876    1.00   0.01  0.00  0.00  0.99  0.00  0.00  0.00  0.95  0.00
  HS02004842HS02004848    1.00   0.00  0.05  0.00  0.95  0.00  0.00  0.00  0.69  0.00
  HS02004837HS02004842    1.00   0.00  0.00  0.00  0.99  0.01  0.00  0.00  0.11  0.00
  HS02004830HS02004837    1.00   0.00  0.00  0.00  1.00  0.00  0.00  0.00  0.99  0.00
  HS02004824HS02004830    1.00   0.00  0.00  0.00  1.00  0.00  0.00  0.00  0.00  0.00
  HS02004817HS02004824    1.00   0.00  0.00  0.00  1.00  0.00  0.00  0.00  1.00  0.00
  HS02004770HS02004777    1.00   0.00  0.04  0.00  0.95  0.00  0.00  0.00  0.07  0.00
  HS02004799HS02004480    1.00   0.00  0.02  0.00  0.94  0.00  0.03  0.00  0.00  0.00
  HS02004792HS02004799    1.00   0.00  0.00  0.00  0.99  0.01  0.00  0.00  0.98  0.00
  HS02004788HS02004792    1.00   0.00  0.00  0.00  0.99  0.01  0.00  0.00  0.98  0.00
  HS02004785HS02004788    1.00   0.00  0.00  0.00  1.00  0.00  0.00  0.00  0.00  0.00
  HS02004777HS02004785    1.00   0.00  0.00  0.00  1.00  0.00  0.00  0.00  0.20  0.00
  HS02004480HS02004478    1.00   0.05  0.00  0.00  0.75  0.00  0.00  0.20  0.00  0.00
  HS02004479HS02004480    1.00   0.03  0.00  0.00  0.97  0.00  0.00  0.00  0.16  0.00
  HS02004862HS02004870    1.00   0.00  0.00  0.00  1.00  0.00  0.00  0.00  0.06  0.00
  HS02004848HS02004852    1.00   0.05  0.00  0.00  0.95  0.00  0.00  0.00  0.71  0.00
  HS02004856HS02004862    1.00   0.00  0.07  0.00  0.93  0.00  0.00  0.00  0.74  0.00
  HS02004852HS02004856    1.00   0.04  0.01  0.00  0.95  0.00  0.00  0.00  0.83  0.00
  HS02004802HS02004478    1.00   0.05  0.00  0.00  0.95  0.00  0.00  0.00  0.01  0.00
  HS02004478WS02006287    1.00   0.05  0.00  0.00  0.88  0.07  0.00  0.00  0.77  0.00
  HS02004817HS02004807    1.00   0.00  0.05  0.00  0.95  0.00  0.00  0.00  0.00  0.00
  HS02004807HS02004802    1.00   0.05  0.00  0.00  0.95  0.00  0.00  0.00  0.01  0.00
  YS02001759YS02001757    1.00   0.00  0.00  0.00  1.00  0.00  0.00  0.00  0.17  0.00
  YS02001762YS02001759    1.00   0.00  0.00  0.00  1.00  0.00  0.00  0.00  0.04  0.00
  YS02001765YS02001762    1.00   0.00  0.00  0.00  1.00  0.00  0.00  0.00  0.22  0.00
  YS02001770YS02001767    1.00   0.00  0.00  0.00  1.00  0.00  0.00  0.00  0.00  0.00
  YS02001774YS02001770    1.00   0.00  0.05  0.00  0.95  0.00  0.00  0.00  0.07  0.00
  YS02001779YS02001774    1.00   0.00  0.00  0.00  1.00  0.00  0.00  0.00  0.26  0.00
  YS02001649YS02001757    1.00   0.00  0.00  0.00  1.00  0.00  0.00  0.00  0.19  0.00
  YS02001767YS02001765    1.00   0.00  0.00  0.00  1.00  0.00  0.00  0.00  0.01  0.00
  YS02006561YS02001783    1.00   0.07  0.00  0.00  0.06  0.88  0.00  0.00  0.73  0.00
  YS02001783YS02001784    1.00   0.00  0.07  0.00  0.93  0.00  0.00  0.00  0.00  0.00
  YS02001784YS02001785    1.00   0.00  0.00  0.00  1.00  0.00  0.00  0.00  0.25  0.00
  YS02001788YS02001790    1.00   0.00  0.00  0.00  0.15  0.85  0.00  0.00  0.77  0.00
  YS02001790YS02001791    1.00   0.00  0.00  0.00  0.10  0.90  0.00  0.00  0.49  0.00
  YS02001791YS02001793    1.00   0.00  0.00  0.00  0.10  0.90  0.00  0.00  0.01  0.00
  YS02001910YS02001907    1.00   0.00  0.00  0.00  0.97  0.00  0.00  0.02  0.13  0.00
  YS02001786YS02001788    1.00   0.00  0.00  0.00  0.14  0.86  0.00  0.00  0.00  0.00
  YS02001915YS02001910    1.00   0.00  0.00  0.00  0.99  0.01  0.00  0.00  0.24  0.00
  YS02001918YS02001915    1.00   0.00  0.01  0.00  0.98  0.01  0.00  0.00  0.82  0.00
  YS02001923YS02001920    1.00   0.00  0.00  0.00  1.00  0.00  0.00  0.00  1.00  0.00
  YS02001926YS02001923    1.00   0.00  0.03  0.00  0.00  0.00  0.97  0.00  0.00  0.00
  YS02001929YS02001926    1.00   0.00  0.04  0.00  0.96  0.00  0.00  0.00  0.87  0.00
  YS02001920YS02001918    1.00   0.00  0.01  0.00  0.99  0.00  0.00  0.00  0.00  0.00
  YS02001629YS02163301    1.00   0.06  0.00  0.00  0.94  0.00  0.00  0.00  0.00  0.00
  YS02001619YS02001622    1.00   0.04  0.00  0.00  0.96  0.00  0.00  0.00  0.00  0.00
  YS02001622YS02001625    1.00   0.05  0.00  0.00  0.95  0.00  0.00  0.00  0.13  0.00
  YS02001625YS02001629    1.00   0.05  0.02  0.00  0.92  0.00  0.01  0.00  0.00  0.00
  YS02163301YS02001633    1.00   0.00  0.06  0.00  0.94  0.00  0.00  0.00  0.00  0.00
  YS02163601YS02164001    1.00   0.00  0.04  0.00  0.96  0.00  0.00  0.00  0.00  0.00
  YS02164001YS02001641    1.00   0.01  0.03  0.00  0.96  0.00  0.00  0.00  0.07  0.00
  YS02001641YS02001644    1.00   0.00  0.01  0.00  0.99  0.00  0.00  0.00  0.00  0.00
  YS02001647YS02001649    1.00   0.00  0.07  0.00  0.93  0.00  0.00  0.00  0.01  0.00
  YS02006553YS02006556    1.00   0.01  0.00  0.00  0.99  0.00  0.00  0.00  0.03  0.00
  YS02006556YS02006558    1.00   0.00  0.00  0.00  1.00  0.00  0.00  0.00  0.00  0.00
  YSB6556YSB1171          1.00   0.03  0.01  0.00  0.96  0.00  0.00  0.00  0.00  0.00
  YS02001907YS02006553    1.00   0.00  0.02  0.00  0.97  0.00  0.00  0.00  0.00  0.00
  YS02006558YS02006561    1.00   0.07  0.00  0.00  0.00  0.93  0.00  0.00  0.70  0.00
  YS02001633YS02163601    1.00   0.00  0.01  0.00  0.99  0.00  0.00  0.00  0.19  0.00
  YS02001644YS02001647    1.00   0.00  0.07  0.00  0.93  0.00  0.00  0.00  0.00  0.00
  YS02001745YS02001748    1.00   0.00  0.00  0.00  0.77  0.04  0.00  0.19  0.61  0.00
  YS02001748YS02001751    1.00   0.00  0.00  0.00  0.98  0.02  0.00  0.00  0.24  0.00
  YS02001751YS02001754    1.00   0.00  0.00  0.00  0.93  0.00  0.00  0.07  0.02  0.00
  YS02001754YS02001757    1.00   0.00  0.00  0.00  0.99  0.01  0.00  0.00  0.26  0.00
  YS02001882YS02001884    1.00   0.06  0.00  0.00  0.94  0.00  0.00  0.00  0.00  0.00
  YS02001884YS02001887    1.00   0.03  0.01  0.00  0.96  0.00  0.00  0.00  0.00  0.00
  YS02001890YS02001895    1.00   0.00  0.06  0.00  0.94  0.00  0.00  0.00  0.00  0.00
  YS02001895YS02001898    1.00   0.06  0.00  0.00  0.93  0.00  0.01  0.00  0.00  0.00
  YS02001898YS02001901    1.00   0.06  0.00  0.00  0.94  0.00  0.00  0.00  0.02  0.00
  YS02001901YS02001904    1.00   0.06  0.00  0.00  0.94  0.00  0.00  0.00  0.00  0.00
  YS02001904YS02001907    1.00   0.00  0.06  0.00  0.94  0.00  0.00  0.00  0.00  0.00
  YS02001887YS02001890    1.00   0.00  0.00  0.00  0.97  0.00  0.02  0.00  0.00  0.00
  YS02001652YS02001649    1.00   0.00  0.00  0.00  1.00  0.00  0.00  0.00  0.25  0.00
  YS02001655YS02001652    1.00   0.00  0.00  0.00  0.93  0.00  0.00  0.07  0.02  0.00
  YS02001658YS02001655    1.00   0.00  0.05  0.00  0.92  0.02  0.00  0.00  0.18  0.00
  YS02001661YS02001658    1.00   0.05  0.00  0.00  0.80  0.15  0.00  0.00  0.74  0.00
  YS02001664YS02001661    1.00   0.04  0.00  0.00  0.75  0.20  0.00  0.00  0.86  0.00
  YSB1154YSB6556          1.00   0.04  0.00  0.00  0.96  0.00  0.00  0.00  0.02  0.00
  YSB1174YSB1171          1.00   0.03  0.01  0.00  0.96  0.00  0.00  0.00  0.00  0.00
  YSB1171HS02004479       1.00   0.03  0.00  0.00  0.97  0.00  0.00  0.00  0.13  0.00
  HS02004881HS02006253    1.00   0.03  0.00  0.00  0.85  0.01  0.00  0.11  0.64  0.00
  YS02001793JiankangQianchi    1.00   0.00  0.00  0.00  0.32  0.68  0.00  0.00  0.18  0.00
  YS02001757CaochengTiaoxuchi    1.00   0.00  0.08  0.00  0.92  0.00  0.00  0.00  0.00  0.00
  WSF200WS02003060        1.00   0.00  0.05  0.00  0.74  0.21  0.00  0.00  0.24  0.00
  1                       1.00   0.00  0.00  0.00  0.00  1.00  0.00  0.00  0.41  0.00
  2                       1.00   0.57  0.00  0.00  0.00  0.43  0.00  0.00  0.12  0.00
  3                       1.00   0.19  0.00  0.00  0.00  0.81  0.00  0.00  0.37  0.00
  4                       1.00   1.00  0.00  0.00  0.00  0.00  0.00  0.00  0.00  0.00
  
  
  *************************
  Conduit Surcharge Summary
  *************************
  
  ----------------------------------------------------------------------------
                                                           Hours        Hours 
                         --------- Hours Full --------   Above Full   Capacity
  Conduit                Both Ends  Upstream  Dnstream   Normal Flow   Limited
  ----------------------------------------------------------------------------
  WS02006229WS02006228        1.87      2.31      1.87      4.84         1.87
  WS02006256WS02006235        5.71      5.71      7.83      2.21         0.01
  WS02006252WS02006251        1.46      1.46      2.90      2.53         0.01
  WS02006251WS02006249        0.01      0.01      0.01      1.42         0.01
  WS02006249WS02006248        0.01      0.01      0.01      4.81         0.01
  WS02006247WS02006245        0.01      0.01      0.01      5.06         0.01
  WS02006245WS02006243        0.01      0.01      0.01      0.05         0.01
  WS02006243WS02006242        0.01      0.01      0.87      0.01         0.01
  WS02006242WS02006240        0.09      0.09      1.57      2.98         0.01
  WS02006240WS02006239        0.21      0.21      0.24      0.27         0.01
  WS02006239WS02006238        1.25      1.26      1.41      0.39         0.11
  WS02006238WS02006235        1.11      1.11      1.91      0.01         0.01
  WS02006235WS02006234        0.01      0.01      0.69      5.73         0.01
  WS02006234WS02006232        0.23      0.23      2.35      0.01         0.01
  WS02006232WS02006231        0.01      0.01      2.35      0.01         0.01
  WS02006231WS02006230        0.01      0.01      0.01      5.73         0.01
  WS02006230WS02006229        3.71      4.61      3.71      5.82         3.71
  WS02006228WS02006109        2.10      2.99      2.10      5.44         2.10
  WS02006111WS02006112        0.01      0.01      4.96      0.01         0.01
  WS02006110WS02006113        0.01      0.01      2.65      0.01         0.01
  WS02006109WS02006110        0.01      0.01      2.99      0.01         0.01
  WS02004404WS02004405        0.01      0.01      0.01      5.63         0.01
  WS02003072WS02003073        0.01      0.01      0.01      5.47         0.01
  YS02001759YS02001757        3.85      3.85      4.53      0.01         0.01
  YS02001762YS02001759        3.51      3.51      3.85      0.01         0.01
  YS02001765YS02001762        1.01      1.01      3.51      0.01         0.01
  YS02001770YS02001767        0.01      0.01      0.03      0.01         0.01
  YS02001774YS02001770        0.01      0.01      2.85      0.01         0.01
  YS02001779YS02001774        0.01      0.01      2.85      0.01         0.01
  YS02001649YS02001757        3.59      3.59      4.53      0.01         0.01
  YS02001767YS02001765        0.03      0.03      1.01      0.01         0.01
  YS02001788YS02001790        0.01      0.01      0.34      0.01         0.01
  YS02001790YS02001791        0.34      0.34      0.39      0.01         0.01
  YS02001791YS02001793        0.39      0.39      0.50      0.01         0.01
  YS02163301YS02001633        0.01      0.01      1.09      0.01         0.01
  YS02163601YS02164001        0.74      0.74      3.55      0.01         0.01
  YS02164001YS02001641        0.74      0.74      2.15      0.01         0.01
  YS02001641YS02001644        2.15      2.15      2.35      0.01         0.04
  YS02001647YS02001649        0.01      0.01      3.59      0.01         0.01
  YS02001633YS02163601        0.32      0.32      3.55      0.01         0.01
  YS02001644YS02001647        0.01      0.01      2.35      0.01         0.01
  YS02001754YS02001757        0.01      0.01      4.53      0.01         0.01
  YS02001652YS02001649        0.01      0.01      3.59      0.01         0.01
  YS02001793JiankangQianchi        0.47      0.47      1.29      0.01         0.01
  YS02001757CaochengTiaoxuchi        0.01      0.01      4.53      0.01         0.01
  
  
  ***************
  Pumping Summary
  ***************
  
  ---------------------------------------------------------------------------------------------------------
                                                  Min       Avg       Max     Total     Power    % Time Off
                        Percent   Number of      Flow      Flow      Flow    Volume     Usage    Pump Curve
  Pump                 Utilized   Start-Ups       LPS       LPS       LPS  10^6 ltr     Kw-hr    Low   High
  ---------------------------------------------------------------------------------------------------------
  CC-Pump-1               62.47           6      0.00    154.96    200.00     2.704     10.34    0.0   36.6
  CC-Pump-2               66.72           7      0.00    133.35    200.00     2.534      9.85    0.0   40.7
  JK-Pump-1               72.33           6      0.00    115.72    300.00     1.639     27.54    0.0    0.0
  JK-Pump-2               89.36           5      0.00    133.17    300.00     2.428     39.76    0.0    0.0
  XR-Pump-1               89.35           5      0.00     85.48     95.00     2.052     15.84    0.0    0.0
  XR-Pump-2               74.47           8      0.00     55.55     95.00     1.197      9.90    0.0    0.0
  XR-Pump-3               91.48           6      0.00     79.30     95.00     2.023     15.66    0.0    0.0
  XR-Pump-4               72.32           7      0.00     67.22     95.00     1.396     11.07    0.0    0.0
  

  Analysis begun on:  Tue Dec 21 15:32:22 2021
  Analysis ended on:  Tue Dec 21 15:32:25 2021
  Total elapsed time: 00:00:03