
  EPA STORM WATER MANAGEMENT MODEL - VERSION 5.1 (Build 5.3.0.dev0)
  --------------------------------------------------------------

  WARNING 04: minimum elevation drop used for Conduit WS02004404WS02004405
  WARNING 03: negative offset ignored for Link YS02001904YS02001907
  
  *********************************************************
  NOTE: The summary statistics displayed in this report are
  based on results found at every computational time step,  
  not just on results from each reporting time step.
  *********************************************************
  
  ****************
  Analysis Options
  ****************
  Flow Units ............... LPS
  Process Models:
    Rainfall/Runoff ........ YES
    RDII ................... NO
    Snowmelt ............... NO
    Groundwater ............ NO
    Flow Routing ........... YES
    Ponding Allowed ........ NO
    Water Quality .......... NO
  Infiltration Method ...... HORTON
  Flow Routing Method ...... DYNWAVE
  Surcharge Method ......... EXTRAN
  Starting Date ............ 08/28/2015 08:00:00
  Ending Date .............. 08/28/2015 15:50:00
  Antecedent Dry Days ...... 8.0
  Report Time Step ......... 00:01:00
  Wet Time Step ............ 00:01:00
  Dry Time Step ............ 00:01:00
  Routing Time Step ........ 5.00 sec
  Variable Time Step ....... YES
  Maximum Trials ........... 8
  Number of Threads ........ 4
  Head Tolerance ........... 0.001500 m
  
  
  **************************        Volume         Depth
  Runoff Quantity Continuity     hectare-m            mm
  **************************     ---------       -------
  Total Precipitation ......         2.455         5.375
  Evaporation Loss .........         0.000         0.000
  Infiltration Loss ........         0.614         1.344
  Surface Runoff ...........         0.980         2.145
  Final Storage ............         0.862         1.887
  Continuity Error (%) .....        -0.018
  
  
  **************************        Volume        Volume
  Flow Routing Continuity        hectare-m      10^6 ltr
  **************************     ---------     ---------
  Dry Weather Inflow .......         0.616         6.165
  Wet Weather Inflow .......         0.979         9.790
  Groundwater Inflow .......         0.000         0.000
  RDII Inflow ..............         0.000         0.000
  External Inflow ..........         0.102         1.024
  External Outflow .........         1.698        16.977
  Flooding Loss ............         0.000         0.000
  Evaporation Loss .........         0.000         0.000
  Exfiltration Loss ........         0.000         0.000
  Initial Stored Volume ....         0.076         0.761
  Final Stored Volume ......         0.235         2.345
  Continuity Error (%) .....        -8.922
  
  
  *************************
  Highest Continuity Errors
  *************************
  Node JK-storage (-49.74%)
  Node HS02004842 (30.51%)
  Node YS02001884 (24.93%)
  Node YS02001774 (8.03%)
  Node YSB1171 (7.78%)
  
  
  ***************************
  Time-Step Critical Elements
  ***************************
  Link WS02006252WS02006251 (49.69%)
  Link 3 (39.81%)
  Link WS02006238WS02006235 (4.20%)
  Link WS02006280WS02006229 (1.87%)
  
  
  ********************************
  Highest Flow Instability Indexes
  ********************************
  Link WS02006113WS02006111 (43)
  Link WS02006111WS02006112 (21)
  Link WS02006110WS02006113 (3)
  Link YS02001765YS02001762 (3)
  Link YS02001762YS02001759 (3)
  
  
  *************************
  Routing Time Step Summary
  *************************
  Minimum Time Step           :     0.39 sec
  Average Time Step           :     0.89 sec
  Maximum Time Step           :     5.00 sec
  Percent in Steady State     :    -0.00
  Average Iterations per Step :     2.16
  Percent Not Converging      :     1.93
  
  
  ***************************
  Subcatchment Runoff Summary
  ***************************
  
  ------------------------------------------------------------------------------------------------------------------------------
                            Total      Total      Total      Total     Imperv       Perv      Total       Total     Peak  Runoff
                           Precip      Runon       Evap      Infil     Runoff     Runoff     Runoff      Runoff   Runoff   Coeff
  Subcatchment                 mm         mm         mm         mm         mm         mm         mm    10^6 ltr      LPS
  ------------------------------------------------------------------------------------------------------------------------------
  sub0                       5.37       0.00       0.00       0.38       3.73       0.00       3.73        0.00     1.27   0.695
  sub1                       5.37       0.00       0.00       0.59       3.53       0.00       3.53        0.02     6.53   0.657
  sub2                       5.37       0.00       0.00       1.99       2.48       0.00       2.48        0.02     5.75   0.462
  sub3                       5.37       0.00       0.00       1.99       2.45       0.00       2.45        0.06    11.75   0.455
  sub4                       5.37       0.00       0.00       0.59       3.39       0.00       3.39        0.07    13.11   0.632
  sub5                       5.37       0.00       0.00       0.38       3.69       0.00       3.69        0.04    11.61   0.686
  sub7                       5.37       0.00       0.00       0.48       3.64       0.00       3.64        0.01     4.14   0.677
  sub8                       5.37       0.00       0.00       0.48       3.63       0.00       3.63        0.02     7.27   0.675
  sub9                       5.37       0.00       0.00       0.48       3.63       0.00       3.63        0.02     5.38   0.675
  sub10                      5.37       0.00       0.00       0.43       3.65       0.00       3.65        0.04    11.61   0.680
  sub11                      5.37       0.00       0.00       0.43       3.67       0.00       3.67        0.04    13.69   0.683
  sub12                      5.37       0.00       0.00       0.70       3.49       0.00       3.49        0.03    11.71   0.649
  sub14                      5.37       0.00       0.00       0.48       3.62       0.00       3.62        0.03    10.51   0.674
  sub15                      5.37       0.00       0.00       1.61       2.78       0.00       2.78        0.05    14.25   0.518
  sub16                      5.37       0.00       0.00       1.77       2.68       0.00       2.68        0.03    10.26   0.499
  sub17                      5.37       0.00       0.00       1.72       2.72       0.00       2.72        0.02     8.28   0.506
  sub22                      5.37       0.00       0.00       2.31       2.28       0.00       2.28        0.14    46.88   0.423
  sub23                      5.37       0.00       0.00       1.99       2.52       0.00       2.52        0.12    39.98   0.468
  sub60                      5.37       0.00       0.00       0.64       2.37       0.00       2.37        0.72    64.64   0.442
  sub61                      5.37       0.00       0.00       0.91       2.56       0.00       2.56        0.79    81.69   0.477
  sub62                      5.37       0.00       0.00       0.43       2.74       0.00       2.74        0.84    83.30   0.510
  sub63                      5.37       0.00       0.00       1.56       2.29       0.00       2.29        0.69    76.49   0.426
  sub64                      5.37       0.00       0.00       0.81       2.27       0.00       2.27        0.69    61.36   0.422
  sub65                      5.37       0.00       0.00       0.70       2.29       0.00       2.29        0.71    62.22   0.427
  sub66                      5.37       0.00       0.00       1.56       1.98       0.00       1.98        0.61    56.37   0.369
  sub67                      5.37       0.00       0.00       0.43       3.04       0.00       3.04        0.94   107.71   0.565
  sub68                      5.37       0.00       0.00       0.75       2.73       0.00       2.73        0.84    90.50   0.508
  sub69                      5.37       0.00       0.00       0.81       2.97       0.00       2.97        0.69    90.66   0.553
  sub70                      5.37       3.03       0.00       2.86       3.59       0.00       3.59        0.82    70.94   0.427
  sub71                      5.37       0.00       0.00       0.43       2.61       0.00       2.61        0.62    57.99   0.486
  sub72                      5.37       0.00       0.00       0.38       1.81       0.00       1.81        0.37    26.99   0.337
  sub73                      5.37       3.49       0.00       3.01       3.60       0.00       3.60        0.85    60.66   0.406
  sub74                      5.37       0.00       0.00       4.03       0.90       0.00       0.90        0.36    50.75   0.167
  
  
  ******************
  Node Depth Summary
  ******************
  
  ---------------------------------------------------------------------------------
                                 Average  Maximum  Maximum  Time of Max    Reported
                                   Depth    Depth      HGL   Occurrence   Max Depth
  Node                 Type       Meters   Meters   Meters  days hr:min      Meters
  ---------------------------------------------------------------------------------
  WS02001211           JUNCTION     0.66     0.76     5.60     0  04:31        0.76
  WS02001212           JUNCTION     0.38     0.46     5.53     0  04:31        0.46
  WS02001213           JUNCTION     0.61     0.69     5.45     0  04:32        0.69
  WS02003069           JUNCTION     0.43     0.51     5.10     0  03:03        0.51
  WS02003072           JUNCTION     0.50     0.58     4.95     0  03:04        0.58
  WS02003073           JUNCTION     0.30     0.35     4.42     0  03:04        0.35
  WS02003060           JUNCTION     0.38     0.46     5.39     0  03:02        0.46
  WS02003066           JUNCTION     0.23     0.29     5.85     0  02:42        0.29
  WS02003059           JUNCTION     0.67     0.74     5.43     0  04:32        0.74
  WS02003067           JUNCTION     0.57     0.69     6.01     0  02:42        0.69
  WS02004401           JUNCTION     0.66     0.84     6.84     0  02:38        0.84
  WS02004402           JUNCTION     0.69     0.86     6.82     0  02:38        0.86
  WS02004403           JUNCTION     0.71     0.88     6.81     0  02:38        0.88
  WS02004404           JUNCTION     0.79     0.95     6.80     0  02:38        0.95
  WS02004406           JUNCTION     0.79     0.95     6.78     0  02:39        0.95
  WS02004409           JUNCTION     0.48     0.65     6.42     0  02:41        0.65
  WS02004410           JUNCTION     0.50     0.67     6.39     0  02:41        0.67
  WS02004411           JUNCTION     0.51     0.68     6.36     0  02:41        0.68
  WS02004412           JUNCTION     0.53     0.69     6.33     0  02:41        0.69
  WS02004413           JUNCTION     0.69     0.85     6.32     0  02:42        0.85
  WS02004405           JUNCTION     0.78     0.94     6.79     0  02:38        0.94
  WS02006109           JUNCTION     0.73     0.96     7.58     0  02:32        0.96
  WS02006110           JUNCTION     0.73     0.91     7.50     0  02:32        0.91
  WS02006111           JUNCTION     0.21     0.28     6.99     0  02:33        0.28
  WS02006112           JUNCTION     0.82     1.03     6.91     0  02:38        1.03
  WS02006113           JUNCTION     0.33     0.45     7.34     0  02:33        0.45
  WS02006115           JUNCTION     0.55     0.74     6.88     0  02:39        0.74
  WS02006116           JUNCTION     0.63     0.82     6.86     0  02:38        0.82
  WS02006230           JUNCTION     0.70     1.01     7.75     0  02:32        1.01
  WS02006231           JUNCTION     0.47     0.69     7.81     0  02:32        0.68
  WS02006232           JUNCTION     0.61     0.82     7.86     0  02:32        0.82
  WS02006234           JUNCTION     0.53     0.76     7.92     0  02:32        0.76
  WS02006235           JUNCTION     0.56     0.80     7.96     0  02:32        0.80
  WS02006238           JUNCTION     0.58     0.83     7.97     0  02:32        0.82
  WS02006240           JUNCTION     0.48     0.75     8.04     0  02:31        0.75
  WS02006242           JUNCTION     0.54     0.82     8.08     0  02:31        0.81
  WS02006243           JUNCTION     0.42     0.71     8.13     0  02:31        0.70
  WS02006245           JUNCTION     0.40     0.67     8.16     0  02:33        0.67
  WS02006247           JUNCTION     0.42     0.68     8.18     0  02:33        0.68
  WS02006248           JUNCTION     0.37     0.61     8.20     0  02:33        0.61
  WS02006249           JUNCTION     0.40     0.62     8.22     0  02:34        0.62
  WS02006239           JUNCTION     0.54     0.80     8.01     0  02:31        0.80
  WS02006251           JUNCTION     0.39     0.65     8.32     0  02:33        0.65
  WS02006252           JUNCTION     0.36     0.59     8.83     0  04:30        0.58
  WS02006253           JUNCTION     0.42     0.68     8.32     0  02:32        0.68
  WS02006256           JUNCTION     1.01     1.19     8.13     0  02:40        1.19
  WS02004138           JUNCTION     0.15     0.19     7.44     0  00:20        0.19
  WS02004407           JUNCTION     0.22     0.29     6.60     0  02:39        0.29
  WS02006228           JUNCTION     0.73     1.42     8.07     0  05:21        0.99
  WS02006229           JUNCTION     0.71     0.99     7.69     0  02:32        0.99
  WS02006280           JUNCTION     0.05     0.14     8.41     0  02:19        0.14
  WS02006284           JUNCTION     0.34     0.47     8.87     0  02:19        0.47
  WS02006287           JUNCTION     0.08     0.20     9.15     0  02:19        0.20
  WSF200               JUNCTION     0.21     0.30     5.53     0  02:40        0.30
  HS02004901           JUNCTION     0.11     0.22    10.04     0  02:17        0.22
  HS02004881           JUNCTION     0.01     0.02     9.05     0  02:18        0.02
  HS02004876           JUNCTION     0.03     0.10     9.13     0  02:17        0.10
  HS02004870           JUNCTION     0.01     0.04     9.32     0  02:19        0.04
  HS02004862           JUNCTION     0.01     0.04     9.43     0  02:20        0.04
  HS02004856           JUNCTION     0.07     0.10     9.53     0  02:19        0.10
  HS02004852           JUNCTION     0.01     0.02     9.54     0  02:20        0.02
  HS02004848           JUNCTION     0.01     0.02     9.63     0  02:18        0.02
  HS02004842           JUNCTION     0.33     0.36     9.63     0  02:18        0.36
  HS02004837           JUNCTION     0.03     0.05     9.63     0  02:18        0.05
  HS02004830           JUNCTION     0.04     0.06     9.53     0  02:18        0.06
  HS02004824           JUNCTION     0.02     0.04     9.44     0  02:22        0.04
  HS02004817           JUNCTION     0.42     0.51     9.36     0  02:19        0.51
  HS02004807           JUNCTION     0.11     0.19     9.36     0  02:19        0.19
  HS02004802           JUNCTION     0.15     0.23     9.36     0  02:19        0.23
  HS02004799           JUNCTION     0.10     0.24     9.45     0  02:17        0.24
  HS02004792           JUNCTION     0.02     0.09     9.61     0  02:16        0.09
  HS02004788           JUNCTION     0.02     0.07     9.97     0  02:18        0.07
  HS02004785           JUNCTION     0.03     0.13    10.03     0  02:17        0.13
  HS02004777           JUNCTION     0.13     0.24    10.04     0  02:17        0.24
  HS02004770           JUNCTION     0.10     0.21    10.04     0  02:17        0.21
  HS02004480           JUNCTION     0.06     0.19     9.43     0  02:17        0.19
  HS02004479           JUNCTION     0.10     0.22     9.43     0  02:17        0.22
  HS02004478           JUNCTION     0.05     0.12     9.34     0  02:19        0.12
  YS02001745           JUNCTION     0.07     0.11     7.63     0  03:01        0.11
  YS02001748           JUNCTION     0.22     0.43     7.50     0  04:27        0.42
  YS02001751           JUNCTION     0.40     0.62     7.50     0  04:27        0.61
  YS02001754           JUNCTION     0.65     0.90     7.51     0  04:26        0.88
  YS02001762           JUNCTION     0.85     1.18     7.58     0  04:11        1.14
  YS02001765           JUNCTION     0.80     1.11     7.56     0  04:13        1.08
  YS02001767           JUNCTION     0.76     1.21     7.69     0  04:11        1.00
  YS02001770           JUNCTION     0.76     1.00     7.49     0  04:26        1.00
  YS02001774           JUNCTION     0.83     1.07     7.49     0  04:26        1.06
  YS02001779           JUNCTION     0.58     0.82     7.51     0  04:11        0.81
  YS02001882           JUNCTION     0.27     0.42     7.13     0  02:54        0.42
  YS02001884           JUNCTION     0.36     0.52     7.13     0  02:53        0.52
  YS02001759           JUNCTION     0.88     1.19     7.55     0  04:16        1.17
  YS02001887           JUNCTION     0.44     0.60     7.13     0  02:53        0.60
  YS02001890           JUNCTION     0.47     0.63     7.13     0  02:54        0.63
  YS02001898           JUNCTION     0.24     0.38     7.12     0  02:54        0.38
  YS02001901           JUNCTION     0.36     0.51     7.12     0  02:55        0.51
  YS02001904           JUNCTION     0.34     0.48     7.11     0  02:55        0.48
  YS02001907           JUNCTION     0.67     0.83     7.12     0  02:54        0.83
  YS02001910           JUNCTION     0.46     0.61     7.12     0  02:54        0.61
  YS02001915           JUNCTION     0.26     0.40     7.12     0  02:54        0.40
  YS02001918           JUNCTION     0.07     0.09     7.16     0  03:03        0.09
  YS02001619           JUNCTION     0.36     0.58     7.51     0  04:27        0.57
  YS02001629           JUNCTION     0.71     0.96     7.51     0  04:26        0.95
  YS02001641           JUNCTION     0.81     1.11     7.55     0  04:25        1.10
  YS02001644           JUNCTION     0.82     1.10     7.54     0  04:10        1.09
  YS02001652           JUNCTION     0.66     0.92     7.51     0  04:24        0.91
  YS02001655           JUNCTION     0.43     0.67     7.52     0  04:25        0.65
  YS02001920           JUNCTION     0.17     0.19     7.20     0  03:02        0.19
  YS02001923           JUNCTION     0.06     0.08     7.34     0  03:02        0.08
  YS02001926           JUNCTION     0.13     0.16     7.61     0  03:01        0.16
  YS02001929           JUNCTION     0.06     0.08     7.77     0  03:01        0.08
  YS02001658           JUNCTION     0.17     0.37     7.51     0  04:25        0.35
  YS02001661           JUNCTION     0.14     0.19     7.59     0  02:45        0.19
  YS02001664           JUNCTION     0.06     0.11     8.03     0  02:45        0.11
  YS02001622           JUNCTION     0.38     0.59     7.49     0  04:27        0.58
  YS02001633           JUNCTION     0.80     1.09     7.54     0  04:26        1.05
  YS02001649           JUNCTION     0.86     1.11     7.50     0  04:26        1.09
  YS02001757           JUNCTION     0.98     1.25     7.51     0  04:17        1.24
  YS02001895           JUNCTION     0.24     0.38     7.13     0  02:54        0.38
  YS02001625           JUNCTION     0.66     0.90     7.50     0  04:27        0.89
  YS02163301           JUNCTION     0.74     1.03     7.55     0  04:26        0.98
  YS02163601           JUNCTION     0.85     1.15     7.55     0  04:28        1.12
  YS02164001           JUNCTION     0.79     1.10     7.56     0  04:25        1.08
  YS02001647           JUNCTION     0.65     0.92     7.53     0  04:28        0.90
  YSB1154              JUNCTION     0.24     0.37     9.43     0  02:18        0.37
  YSB6556              JUNCTION     0.13     0.26     9.43     0  02:17        0.26
  YSB1174              JUNCTION     0.19     0.32     9.43     0  02:18        0.32
  YSB1171              JUNCTION     0.39     0.52     9.43     0  02:17        0.52
  YS02006553           JUNCTION     0.67     0.83     7.11     0  02:54        0.83
  YS02006561           JUNCTION     0.13     0.21     6.87     0  02:55        0.21
  YS02006556           JUNCTION     0.64     0.80     7.11     0  02:55        0.80
  YS02006558           JUNCTION     0.69     0.84     7.11     0  02:55        0.84
  YS02001783           JUNCTION     0.23     0.37     6.51     0  02:55        0.37
  YS02001784           JUNCTION     0.26     0.40     6.47     0  02:55        0.40
  YS02001786           JUNCTION     0.22     0.34     6.37     0  02:55        0.34
  YS02001788           JUNCTION     0.16     0.25     6.23     0  02:56        0.25
  YS02001790           JUNCTION     0.19     0.31     5.95     0  02:56        0.31
  YS02001791           JUNCTION     0.13     0.20     5.67     0  02:56        0.20
  YS02001793           JUNCTION     0.08     0.13     4.96     0  02:56        0.13
  WS02004139           JUNCTION     0.60     0.70     5.61     0  04:30        0.70
  WSC                  OUTFALL      0.30     0.35     1.02     0  03:05        0.35
  3                    OUTFALL      0.08     0.19     6.19     0  02:40        0.19
  4                    OUTFALL      0.02     0.12     7.12     0  02:34        0.12
  5                    OUTFALL      0.00     0.00     5.00     0  00:00        0.00
  JK-storage           STORAGE      0.08     3.00     3.80     0  00:00        2.70
  CC-storage           STORAGE      0.22     0.46     7.46     0  04:26        0.46
  XR-storage           STORAGE      5.17     7.03     5.03     0  04:08        7.03
  
  
  *******************
  Node Inflow Summary
  *******************
  
  -------------------------------------------------------------------------------------------------
                                  Maximum  Maximum                  Lateral       Total        Flow
                                  Lateral    Total  Time of Max      Inflow      Inflow     Balance
                                   Inflow   Inflow   Occurrence      Volume      Volume       Error
  Node                 Type           LPS      LPS  days hr:min    10^6 ltr    10^6 ltr     Percent
  -------------------------------------------------------------------------------------------------
  WS02001211           JUNCTION      7.35   382.30     0  00:20       0.207        7.01       0.502
  WS02001212           JUNCTION      0.00   378.93     0  00:21           0        6.98       0.302
  WS02001213           JUNCTION      0.00   378.36     0  00:21           0        6.96       0.305
  WS02003069           JUNCTION      0.32   760.11     0  03:03     0.00902        14.1       0.176
  WS02003072           JUNCTION      0.00   759.61     0  03:03           0          14       0.225
  WS02003073           JUNCTION      1.82   761.04     0  03:04      0.0514          14       0.249
  WS02003060           JUNCTION     16.53   760.02     0  03:02       0.466        14.1       0.169
  WS02003066           JUNCTION      0.00   517.04     0  02:42           0        6.71       0.047
  WS02003059           JUNCTION      0.00   376.97     0  00:22           0        6.94       0.516
  WS02003067           JUNCTION      0.00   517.00     0  02:42           0        6.72       0.106
  WS02004401           JUNCTION      0.00   521.15     0  02:36           0         6.9       0.264
  WS02004402           JUNCTION      0.00   520.58     0  02:37           0        6.88       0.252
  WS02004403           JUNCTION      0.00   520.19     0  02:37           0        6.87       0.232
  WS02004404           JUNCTION      0.16   520.26     0  02:38     0.00457        6.86       0.180
  WS02004406           JUNCTION      0.00   520.24     0  02:38           0        6.83       0.437
  WS02004409           JUNCTION      0.00   520.03     0  02:39           0        6.79       0.165
  WS02004410           JUNCTION      0.00   518.50     0  02:40           0        6.78       0.190
  WS02004411           JUNCTION      0.00   517.88     0  02:41           0        6.77       0.199
  WS02004412           JUNCTION      0.00   517.46     0  02:41           0        6.75       0.224
  WS02004413           JUNCTION      0.00   517.22     0  02:41           0        6.74       0.346
  WS02004405           JUNCTION      0.04   520.22     0  02:38     0.00107        6.84       0.268
  WS02006109           JUNCTION      1.23   526.13     0  02:32      0.0347        6.99       0.280
  WS02006110           JUNCTION      0.00   526.14     0  02:32           0        6.97       0.265
  WS02006111           JUNCTION      0.00   545.90     0  02:33           0        6.94       0.053
  WS02006112           JUNCTION      8.28   535.05     0  02:33      0.0233        6.96       0.377
  WS02006113           JUNCTION      0.00   526.14     0  02:32           0        6.95       0.127
  WS02006115           JUNCTION      0.00   530.82     0  02:33           0        6.93       0.234
  WS02006116           JUNCTION      0.00   523.49     0  02:35           0        6.92       0.224
  WS02006230           JUNCTION     10.28   395.42     0  04:56        0.29        6.17       0.208
  WS02006231           JUNCTION      0.00   385.35     0  04:52           0        5.89       0.162
  WS02006232           JUNCTION      0.00   385.46     0  04:52           0         5.9       0.259
  WS02006234           JUNCTION      0.00   386.26     0  04:52           0        5.91       0.116
  WS02006235           JUNCTION      0.00   386.48     0  04:52           0        5.95       0.175
  WS02006238           JUNCTION      0.00   315.78     0  06:00           0        4.11       0.171
  WS02006240           JUNCTION      0.00   323.33     0  04:31           0        4.09       0.260
  WS02006242           JUNCTION      0.00   334.22     0  04:31           0        4.09       0.331
  WS02006243           JUNCTION      0.00   340.04     0  04:31           0        4.08      -0.085
  WS02006245           JUNCTION      0.00   342.43     0  04:31           0        4.09       0.269
  WS02006247           JUNCTION      0.00   346.49     0  04:30           0         4.1       0.162
  WS02006248           JUNCTION      0.00   351.55     0  04:30           0         4.1       0.055
  WS02006249           JUNCTION      0.00   430.56     0  02:33           0        4.53       0.277
  WS02006239           JUNCTION      0.00   315.44     0  06:00           0         4.1       0.247
  WS02006251           JUNCTION      0.08   430.17     0  02:32     0.00217        4.57       0.188
  WS02006252           JUNCTION      0.00   400.00     0  02:30           0        4.41       0.010
  WS02006253           JUNCTION      1.27    36.02     0  02:18     0.00302       0.161       2.430
  WS02006256           JUNCTION      0.00   546.17     0  02:40           0        4.42       0.064
  WS02004138           JUNCTION      0.00   379.86     0  04:30           0        6.84       0.077
  WS02004407           JUNCTION      0.00   520.08     0  02:39           0         6.8       0.081
  WS02006228           JUNCTION      0.00   524.90     0  02:32           0        6.97       0.200
  WS02006229           JUNCTION      0.00   524.47     0  02:32           0        6.98       0.171
  WS02006280           JUNCTION      0.00   186.81     0  02:19           0       0.825       0.008
  WS02006284           JUNCTION      0.10   186.81     0  02:19      0.0027       0.827       0.129
  WS02006287           JUNCTION      0.00   186.74     0  02:19           0       0.825       0.088
  WSF200               JUNCTION      0.00   517.08     0  02:42           0        6.71       0.040
  HS02004901           JUNCTION     10.26    10.26     0  02:11      0.0281      0.0282       6.639
  HS02004881           JUNCTION      4.14    35.05     0  02:18      0.0122       0.128       0.197
  HS02004876           JUNCTION      6.53    31.23     0  02:18      0.0235       0.117       0.452
  HS02004870           JUNCTION      7.27    24.85     0  02:18      0.0232      0.0932       0.114
  HS02004862           JUNCTION      5.95    18.09     0  02:19      0.0287      0.0702       0.237
  HS02004856           JUNCTION      5.38    12.19     0  02:18      0.0174      0.0429       3.465
  HS02004852           JUNCTION      0.00     7.16     0  02:18           0      0.0255       0.196
  HS02004848           JUNCTION     11.75    11.75     0  02:21      0.0551      0.0551       0.078
  HS02004842           JUNCTION      0.00     4.99     0  02:31           0      0.0426      43.910
  HS02004837           JUNCTION     17.96    22.24     0  02:17       0.219       0.249       0.328
  HS02004830           JUNCTION      0.15    22.38     0  02:18     0.00423       0.239       0.518
  HS02004824           JUNCTION     13.16    35.37     0  02:21      0.0722        0.31       0.174
  HS02004817           JUNCTION      0.60    35.97     0  02:22      0.0169       0.327       5.375
  HS02004807           JUNCTION     13.69    48.40     0  02:20      0.0426       0.353       1.213
  HS02004802           JUNCTION      0.00    48.62     0  02:21           0       0.348       1.176
  HS02004799           JUNCTION     10.51   117.83     0  02:16      0.0345       0.423       0.538
  HS02004792           JUNCTION     47.16   107.58     0  02:16       0.152       0.389       0.106
  HS02004788           JUNCTION     15.92    62.63     0  02:17       0.095       0.238       0.164
  HS02004785           JUNCTION      0.15    47.14     0  02:16     0.00423       0.145       0.332
  HS02004777           JUNCTION      0.03    47.60     0  02:14    0.000846       0.146       3.684
  HS02004770           JUNCTION     39.98    48.91     0  02:12        0.12       0.146       2.161
  HS02004480           JUNCTION      0.00   139.03     0  02:17           0       0.492       0.146
  HS02004479           JUNCTION      0.00    21.51     0  02:19           0      0.0817       0.900
  HS02004478           JUNCTION      0.00   186.73     0  02:18           0       0.825       0.076
  YS02001745           JUNCTION     64.65    64.65     0  03:01       0.719       0.719       0.105
  YS02001748           JUNCTION      0.04   161.96     0  03:56     0.00127        0.83      -0.042
  YS02001751           JUNCTION      0.01   199.07     0  03:54     0.00031       0.851       0.589
  YS02001754           JUNCTION      0.26   150.65     0  03:55     0.00733       0.878       1.444
  YS02001762           JUNCTION      0.00   117.97     0  03:31           0        0.82       2.026
  YS02001765           JUNCTION      0.00   107.27     0  03:23           0       0.814       2.107
  YS02001767           JUNCTION      0.54   143.89     0  04:11      0.0151       0.827       3.016
  YS02001770           JUNCTION     83.46   134.32     0  04:10       0.846       0.958       2.191
  YS02001774           JUNCTION      0.00    91.32     0  04:09           0       0.224       8.730
  YS02001779           JUNCTION      0.01    90.36     0  04:10    0.000141      0.0963       8.195
  YS02001882           JUNCTION      0.00     3.63     0  02:08           0     0.00472      51.962
  YS02001884           JUNCTION      0.00    10.62     0  02:08           0       0.019      33.210
  YS02001759           JUNCTION     81.73   185.20     0  02:48        0.79        1.58       1.190
  YS02001887           JUNCTION    108.16   108.16     0  02:43       0.949       0.958       0.738
  YS02001890           JUNCTION      0.00   107.48     0  02:46           0       0.936       0.829
  YS02001898           JUNCTION      0.00   106.98     0  02:49           0       0.924       0.225
  YS02001901           JUNCTION      0.00   106.84     0  02:48           0       0.924       0.585
  YS02001904           JUNCTION      0.00   106.52     0  02:50           0       0.923       0.545
  YS02001907           JUNCTION      0.00   193.24     0  02:56           0        1.97       1.119
  YS02001910           JUNCTION      0.00    87.96     0  03:00           0        1.06       0.951
  YS02001915           JUNCTION     58.01    87.61     0  03:01       0.617        1.06       0.414
  YS02001918           JUNCTION      0.00    29.86     0  03:02           0       0.447       0.235
  YS02001619           JUNCTION     56.37    56.37     0  02:59       0.608        0.61       0.301
  YS02001629           JUNCTION      0.00   108.09     0  04:12           0       0.606       1.463
  YS02001641           JUNCTION      0.00   136.72     0  04:14           0        1.24       1.134
  YS02001644           JUNCTION     61.40   195.93     0  02:59        0.69        1.91       0.902
  YS02001652           JUNCTION      0.00   132.93     0  03:59           0       0.785       1.549
  YS02001655           JUNCTION      0.15   189.41     0  03:59     0.00434       0.791       0.812
  YS02001920           JUNCTION      2.87    29.87     0  03:02      0.0809       0.449       0.437
  YS02001923           JUNCTION      0.04    27.01     0  03:01     0.00106       0.369       0.076
  YS02001926           JUNCTION      0.05    27.03     0  03:01     0.00147       0.369       0.548
  YS02001929           JUNCTION     26.99    26.99     0  03:01       0.368       0.368       0.074
  YS02001658           JUNCTION      0.00   155.32     0  04:00           0       0.786       0.041
  YS02001661           JUNCTION      0.00    76.48     0  02:45           0       0.692       0.102
  YS02001664           JUNCTION     76.49    76.49     0  02:45       0.692       0.692       0.024
  YS02001622           JUNCTION      0.00    77.87     0  04:17           0        0.61       1.021
  YS02001633           JUNCTION     62.42   145.10     0  03:12       0.711        1.28       1.768
  YS02001649           JUNCTION      0.00   303.22     0  03:25           0        2.63       1.073
  YS02001757           JUNCTION      0.00   482.54     0  02:58           0        4.88       1.661
  YS02001895           JUNCTION      0.00   107.14     0  02:46           0       0.928       0.389
  YS02001625           JUNCTION      0.00   124.96     0  03:55           0       0.625       3.320
  YS02163301           JUNCTION      0.00    97.91     0  03:10           0       0.585       2.701
  YS02163601           JUNCTION      0.11   141.80     0  03:26      0.0031        1.25       1.793
  YS02164001           JUNCTION      0.00   138.96     0  03:24           0        1.24       1.062
  YS02001647           JUNCTION      0.00   192.23     0  03:07           0        1.88       0.849
  YSB1154              JUNCTION     11.61    11.61     0  02:15      0.0417      0.0431       3.463
  YSB6556              JUNCTION      0.00    11.58     0  02:18           0      0.0442       2.900
  YSB1174              JUNCTION     11.71    11.71     0  02:10      0.0305      0.0315       4.246
  YSB1171              JUNCTION      0.00    21.64     0  02:17           0      0.0812       8.437
  YS02006553           JUNCTION      0.00   193.30     0  02:57           0        1.96       0.727
  YS02006561           JUNCTION      0.00   283.73     0  02:55           0        2.77       0.023
  YS02006556           JUNCTION      0.00   193.41     0  03:02           0        1.96       0.523
  YS02006558           JUNCTION     91.38   283.74     0  02:54       0.864         2.8       0.160
  YS02001783           JUNCTION      0.00   283.73     0  02:55           0        2.77       0.052
  YS02001784           JUNCTION      1.06   284.79     0  02:55      0.0299         2.8       0.087
  YS02001786           JUNCTION      0.06   284.83     0  02:55     0.00159         2.8       0.084
  YS02001788           JUNCTION      0.07   284.90     0  02:56       0.002         2.8       0.048
  YS02001790           JUNCTION      0.15   285.05     0  02:56     0.00437         2.8       0.061
  YS02001791           JUNCTION      0.00   285.05     0  02:56           0         2.8       0.030
  YS02001793           JUNCTION      0.00   285.05     0  02:56           0         2.8       0.012
  WS02004139           JUNCTION      0.32   379.83     0  00:20     0.00905        6.84       0.562
  WSC                  OUTFALL       0.00   760.49     0  03:05           0          14       0.000
  3                    OUTFALL       0.00   462.94     0  02:40           0        2.54       0.000
  4                    OUTFALL       0.00   149.43     0  02:34           0       0.421       0.000
  5                    OUTFALL       0.00     0.00     0  00:00           0           0       0.000 ltr
  JK-storage           STORAGE       0.00   285.05     0  02:56           0        2.95     -33.218
  CC-storage           STORAGE       0.00   473.94     0  03:02           0        4.67      -1.525
  XR-storage           STORAGE     305.10   305.10     0  02:53        6.84        7.44       0.000
  
  
  **********************
  Node Surcharge Summary
  **********************
  
  Surcharging occurs when water rises above the top of the highest conduit.
  ---------------------------------------------------------------------
                                               Max. Height   Min. Depth
                                   Hours       Above Crown    Below Rim
  Node                 Type      Surcharged         Meters       Meters
  ---------------------------------------------------------------------
  WS02006109           JUNCTION        1.59          0.140        1.680
  WS02006110           JUNCTION        0.05          0.004        1.846
  WS02006112           JUNCTION        0.28          0.030        1.650
  WS02006232           JUNCTION        1.96          0.118        1.362
  WS02006234           JUNCTION        0.27          0.042        1.198
  WS02006235           JUNCTION        1.03          0.087        1.203
  WS02006238           JUNCTION        1.56          0.105        1.325
  WS02006240           JUNCTION        0.25          0.036        1.354
  WS02006242           JUNCTION        1.11          0.085        0.735
  WS02006239           JUNCTION        0.37          0.058        1.232
  WS02006252           JUNCTION        2.23          0.185        0.915
  WS02006228           JUNCTION        1.41          0.588        1.612
  YS02001762           JUNCTION        1.09          0.175        0.975
  YS02001765           JUNCTION        0.52          0.114        0.986
  YS02001767           JUNCTION        0.04          0.206        0.824
  YS02001774           JUNCTION        0.88          0.070        0.980
  YS02001759           JUNCTION        2.16          0.189        1.021
  YS02001641           JUNCTION        0.70          0.113        0.987
  YS02001644           JUNCTION        0.75          0.103        0.817
  YS02001633           JUNCTION        0.14          0.070        0.990
  YS02001649           JUNCTION        1.27          0.106        0.944
  YS02001757           JUNCTION        3.73          0.249        0.961
  YS02163301           JUNCTION        0.01          0.031        0.999
  YS02163601           JUNCTION        1.15          0.150        0.930
  YS02164001           JUNCTION        0.42          0.100        1.000
  
  
  *********************
  Node Flooding Summary
  *********************
  
  No nodes were flooded.
  
  
  **********************
  Storage Volume Summary
  **********************
  
  --------------------------------------------------------------------------------------------------
                         Average     Avg  Evap Exfil       Maximum     Max    Time of Max    Maximum
                          Volume    Pcnt  Pcnt  Pcnt        Volume    Pcnt     Occurrence    Outflow
  Storage Unit           1000 m3    Full  Loss  Loss       1000 m3    Full    days hr:min        LPS
  --------------------------------------------------------------------------------------------------
  JK-storage               0.004       1     0     0         0.151      52       0  00:00     546.17
  CC-storage               0.605       4     0     0         1.270       8       0  04:26     400.00
  XR-storage               0.621      67     0     0         0.844      91       0  04:08     379.86
  
  
  ***********************
  Outfall Loading Summary
  ***********************
  
  -----------------------------------------------------------
                         Flow       Avg       Max       Total
                         Freq      Flow      Flow      Volume
  Outfall Node           Pcnt       LPS       LPS    10^6 ltr
  -----------------------------------------------------------
  WSC                   99.99    569.99    760.49      14.014
  3                     76.11    168.84    462.94       2.541
  4                     37.34     52.52    149.43       0.421
  5                      0.00      0.00      0.00       0.000
  -----------------------------------------------------------
  System                53.36    791.34   1348.07      16.977
  
  
  ********************
  Link Flow Summary
  ********************
  
  -----------------------------------------------------------------------------
                                 Maximum  Time of Max   Maximum    Max/    Max/
                                  |Flow|   Occurrence   |Veloc|    Full    Full
  Link                 Type          LPS  days hr:min     m/sec    Flow   Depth
  -----------------------------------------------------------------------------
  WS02003066WSF200     CONDUIT    517.08     0  02:42      2.71    0.09    0.23
  WS02006287WS02006284 CONDUIT    186.72     0  02:19      1.57    0.09    0.21
  WS02006284WS02006280 CONDUIT    186.81     0  02:19      1.81    0.08    0.19
  WS02006280WS02006229 CONDUIT    186.82     0  02:19      2.91    0.04    0.14
  WS02006229WS02006228 CONDUIT    524.90     0  02:32      1.04    1.74    1.00
  WS02006256WS02006235 CONDUIT    166.25     0  00:01      2.58    1.76    1.00
  WS02006253WS02006251 CONDUIT     36.05     0  02:20      0.47    0.11    0.94
  WS02006252WS02006251 CONDUIT    400.13     0  06:20      3.18    1.47    1.00
  WS02006251WS02006249 CONDUIT    430.56     0  02:33      1.20    1.24    0.91
  WS02006249WS02006248 CONDUIT    351.55     0  04:30      1.16    1.93    0.87
  WS02006248WS02006247 CONDUIT    346.49     0  04:30      1.13    0.75    0.92
  WS02006247WS02006245 CONDUIT    342.43     0  04:31      1.08    2.72    0.96
  WS02006245WS02006243 CONDUIT    340.04     0  04:31      1.10    1.01    0.98
  WS02006243WS02006242 CONDUIT    334.22     0  04:31      0.99    0.71    1.00
  WS02006242WS02006240 CONDUIT    323.33     0  04:31      0.94    1.28    1.00
  WS02006240WS02006239 CONDUIT    315.44     0  06:00      0.97    0.99    1.00
  WS02006239WS02006238 CONDUIT    315.78     0  06:00      0.87    1.01    1.00
  WS02006238WS02006235 CONDUIT    315.77     0  06:00      1.25    0.70    1.00
  WS02006235WS02006234 CONDUIT    386.26     0  04:52      1.04    4.08    1.00
  WS02006234WS02006232 CONDUIT    385.46     0  04:52      1.13    0.78    1.00
  WS02006232WS02006231 CONDUIT    385.35     0  04:52      1.05    0.81    0.98
  WS02006231WS02006230 CONDUIT    385.15     0  04:56      1.35    5.84    0.94
  WS02006230WS02006229 CONDUIT    396.79     0  05:22      1.03    8.83    1.00
  WS02006228WS02006109 CONDUIT    524.90     0  02:32      1.04    2.29    1.00
  WS02006116WS02004401 CONDUIT    521.15     0  02:36      0.76    0.72    0.83
  WS02006115WS02006116 CONDUIT    523.49     0  02:35      0.86    0.67    0.75
  WS02006113WS02006111 CONDUIT    545.90     0  02:33      2.44    0.65    0.46
  WS02006112WS02006115 CONDUIT    530.82     0  02:33      0.74    0.31    0.86
  WS02006111WS02006112 CONDUIT    530.35     0  02:33      1.48    0.25    0.67
  WS02006110WS02006113 CONDUIT    526.14     0  02:32      1.25    0.48    0.78
  WS02006109WS02006110 CONDUIT    526.14     0  02:32      1.05    1.01    1.00
  WS02004411WS02004412 CONDUIT    517.46     0  02:41      0.91    0.74    0.68
  WS02004401WS02004402 CONDUIT    520.58     0  02:37      0.77    0.62    0.85
  WS02004413WS02003067 CONDUIT    517.00     0  02:42      1.09    0.22    0.58
  WS02004412WS02004413 CONDUIT    517.22     0  02:41      0.80    0.35    0.77
  WS02004410WS02004411 CONDUIT    517.88     0  02:41      0.92    0.71    0.67
  WS02004409WS02004410 CONDUIT    518.50     0  02:40      0.96    0.67    0.66
  WS02004407WS02004409 CONDUIT    520.03     0  02:39      1.46    0.18    0.47
  WS02004406WS02004407 CONDUIT    520.08     0  02:39      1.02    0.23    0.62
  WS02004405WS02004406 CONDUIT    520.24     0  02:38      0.68    1.03    0.95
  WS02004404WS02004405 CONDUIT    520.18     0  02:38      0.84    5.10    0.95
  WS02004403WS02004404 CONDUIT    520.10     0  02:38      0.74    0.38    0.92
  WS02004402WS02004403 CONDUIT    520.19     0  02:37      0.76    0.75    0.87
  WS02004139WS02001211 CONDUIT    374.95     0  00:20      0.81    0.47    0.57
  WS02004138WS02004139 CONDUIT    379.51     0  00:20      3.33    0.08    0.42
  WS02003067WS02003066 CONDUIT    517.04     0  02:42      1.18    0.17    0.41
  WS02001213WS02003059 CONDUIT    376.97     0  00:22      0.80    0.62    0.71
  WS02001212WS02001213 CONDUIT    378.36     0  00:21      1.31    0.58    0.42
  WS02001211WS02001212 CONDUIT    378.93     0  00:21      0.77    0.29    0.61
  WS02003072WS02003073 CONDUIT    759.22     0  03:04      1.60    1.64    0.44
  WS02003069WS02003072 CONDUIT    759.61     0  03:03      1.52    0.37    0.46
  WS02003060WS02003069 CONDUIT    759.79     0  03:03      1.77    0.30    0.40
  WS02003059WS02003060 CONDUIT    375.91     0  04:32      0.93    0.25    0.60
  HS02004901HS02004770 CONDUIT      9.30     0  02:15      0.04    0.04    0.31
  HS02004876HS02004881 CONDUIT     31.29     0  02:19      0.52    0.33    0.09
  HS02004870HS02004876 CONDUIT     24.83     0  02:19      0.37    0.02    0.10
  HS02004842HS02004848 CONDUIT      4.99     0  02:31      0.03    0.00    0.27
  HS02004837HS02004842 CONDUIT      5.16     0  02:31      0.41    0.00    0.29
  HS02004830HS02004837 CONDUIT     22.23     0  02:18      0.43    0.02    0.07
  HS02004824HS02004830 CONDUIT     22.37     0  02:19      0.47    0.03    0.07
  HS02004817HS02004824 CONDUIT     35.37     0  02:22      0.17    0.02    0.39
  HS02004770HS02004777 CONDUIT     47.57     0  02:14      0.21    0.09    0.32
  HS02004799HS02004480 CONDUIT    117.62     0  02:17      0.56    0.15    0.30
  HS02004792HS02004799 CONDUIT    107.52     0  02:16      0.65    0.07    0.24
  HS02004788HS02004792 CONDUIT     62.57     0  02:18      0.80    0.04    0.11
  HS02004785HS02004788 CONDUIT     47.05     0  02:18      0.49    0.35    0.14
  HS02004777HS02004785 CONDUIT     46.99     0  02:16      0.26    0.06    0.26
  HS02004480HS02004478 CONDUIT    138.92     0  02:18      0.92    0.59    0.22
  HS02004479HS02004480 CONDUIT     21.74     0  02:20      0.15    0.02    0.29
  HS02004862HS02004870 CONDUIT     18.05     0  02:20      0.45    0.02    0.06
  HS02004848HS02004852 CONDUIT      7.16     0  02:18      0.30    0.01    0.03
  HS02004856HS02004862 CONDUIT     12.16     0  02:19      0.33    0.01    0.05
  HS02004852HS02004856 CONDUIT      7.13     0  02:20      0.11    0.01    0.09
  HS02004802HS02004478 CONDUIT     48.91     0  02:22      0.29    0.04    0.24
  HS02004478WS02006287 CONDUIT    186.74     0  02:19      1.26    0.05    0.16
  HS02004817HS02004807 CONDUIT     36.40     0  02:23      0.10    0.02    0.50
  HS02004807HS02004802 CONDUIT     48.62     0  02:21      0.24    0.09    0.29
  YS02001759YS02001757 CONDUIT    180.28     0  03:22      0.23    0.13    1.00
  YS02001762YS02001759 CONDUIT    116.08     0  03:24      0.17    0.13    1.00
  YS02001765YS02001762 CONDUIT    117.97     0  03:31      0.23    0.11    1.00
  YS02001770YS02001767 CONDUIT    134.27     0  04:11      0.32    0.53    1.00
  YS02001774YS02001770 CONDUIT     91.32     0  04:09      0.14    0.06    0.98
  YS02001779YS02001774 CONDUIT     90.35     0  04:10      0.12    0.05    0.91
  YS02001649YS02001757 CONDUIT    319.30     0  03:27      0.41    0.19    1.00
  YS02001767YS02001765 CONDUIT    107.27     0  03:23      0.26    0.13    1.00
  YS02006561YS02001783 CONDUIT    283.73     0  02:55      1.74    0.15    0.36
  YS02001783YS02001784 CONDUIT    283.73     0  02:55      1.19    0.39    0.48
  YS02001784YS02001785 CONDUIT    284.78     0  02:55      1.26    0.66    0.46
  YS02001788YS02001790 CONDUIT    284.90     0  02:56      1.83    0.21    0.35
  YS02001790YS02001791 CONDUIT    285.05     0  02:56      2.11    0.31    0.31
  YS02001791YS02001793 CONDUIT    285.05     0  02:56      3.88    0.12    0.21
  YS02001910YS02001907 CONDUIT     88.11     0  03:01      0.49    0.05    0.71
  YS02001786YS02001788 CONDUIT    284.83     0  02:56      1.70    0.55    0.37
  YS02001915YS02001910 CONDUIT     87.96     0  03:00      0.44    0.04    0.50
  YS02001918YS02001915 CONDUIT     29.84     0  03:03      0.44    0.02    0.24
  YS02001923YS02001920 CONDUIT     27.00     0  03:02      0.42    0.01    0.14
  YS02001926YS02001923 CONDUIT     26.97     0  03:01      0.47    0.04    0.13
  YS02001929YS02001926 CONDUIT     26.97     0  03:01      0.49    0.01    0.12
  YS02001920YS02001918 CONDUIT     29.86     0  03:02      0.44    0.03    0.14
  YS02001629YS02163301 CONDUIT     97.91     0  03:10      0.14    0.12    0.97
  YS02001619YS02001622 CONDUIT     77.87     0  04:17      0.64    0.11    0.58
  YS02001622YS02001625 CONDUIT     83.36     0  03:55      0.24    0.04    0.74
  YS02001625YS02001629 CONDUIT    108.09     0  04:12      0.24    0.05    0.73
  YS02163301YS02001633 CONDUIT     87.47     0  03:12      0.12    0.08    1.00
  YS02163601YS02164001 CONDUIT    138.96     0  03:24      0.18    0.12    1.00
  YS02164001YS02001641 CONDUIT    136.72     0  04:14      0.18    0.19    1.00
  YS02001641YS02001644 CONDUIT    137.80     0  03:19      0.18    0.45    1.00
  YS02001647YS02001649 CONDUIT    205.91     0  04:10      0.28    0.11    0.96
  YS02006553YS02006556 CONDUIT    193.41     0  03:02      0.29    0.17    0.80
  YS02006556YS02006558 CONDUIT    193.60     0  03:02      0.28    0.15    0.82
  YSB6556YSB1171       CONDUIT     11.76     0  02:19      0.05    0.01    0.56
  YS02001907YS02006553 CONDUIT    193.30     0  02:57      0.24    0.23    0.90
  YS02006558YS02006561 CONDUIT    283.73     0  02:55      2.24    0.63    0.46
  YS02001633YS02163601 CONDUIT    141.69     0  03:26      0.19    0.15    1.00
  YS02001644YS02001647 CONDUIT    192.23     0  03:07      0.27    0.11    0.96
  YS02001745YS02001748 CONDUIT     64.65     0  03:01      1.37    0.02    0.21
  YS02001748YS02001751 CONDUIT    199.06     0  03:54      1.06    0.10    0.51
  YS02001751YS02001754 CONDUIT     85.95     0  03:04      0.95    0.04    0.73
  YS02001754YS02001757 CONDUIT    186.20     0  03:31      0.33    0.08    0.95
  YS02001882YS02001884 CONDUIT      3.63     0  02:08      0.06    0.00    0.44
  YS02001884YS02001887 CONDUIT     10.62     0  02:08      0.06    0.01    0.53
  YS02001890YS02001895 CONDUIT    107.14     0  02:46      0.27    0.05    0.50
  YS02001895YS02001898 CONDUIT    106.98     0  02:49      0.47    0.19    0.37
  YS02001898YS02001901 CONDUIT    106.84     0  02:48      0.32    0.07    0.45
  YS02001901YS02001904 CONDUIT    106.52     0  02:50      0.27    0.17    0.50
  YS02001904YS02001907 CONDUIT    106.55     0  02:50      0.20    0.04    0.66
  YS02001887YS02001890 CONDUIT    107.48     0  02:46      0.23    0.18    0.59
  YS02001652YS02001649 CONDUIT    179.32     0  03:59      0.32    0.09    0.96
  YS02001655YS02001652 CONDUIT    116.86     0  03:22      1.03    0.06    0.77
  YS02001658YS02001655 CONDUIT    189.26     0  03:59      1.22    0.08    0.49
  YS02001661YS02001658 CONDUIT     76.48     0  02:45      1.41    0.03    0.22
  YS02001664YS02001661 CONDUIT     76.48     0  02:45      1.06    0.02    0.15
  YSB1154YSB6556       CONDUIT     11.58     0  02:18      0.19    0.02    0.45
  YSB1174YSB1171       CONDUIT     10.87     0  02:11      0.05    0.02    0.57
  YSB1171HS02004479    CONDUIT     21.51     0  02:19      0.54    0.01    0.44
  HS02004881HS02006253 CONDUIT     35.05     0  02:18      1.60    0.01    0.26
  YS02001793JiankangQianchi CONDUIT    285.05     0  02:56     12.82    0.02    0.54
  YS02001757CaochengTiaoxuchi CONDUIT    473.94     0  03:02      1.11    0.21    0.73
  WSF200WS02003060     CONDUIT    517.39     0  02:42      1.74    0.11    0.31
  1                    CONDUIT    760.49     0  03:05      3.09    0.26    0.35
  2                    CONDUIT    149.43     0  02:34      5.41    0.36    0.41
  3                    CONDUIT    462.94     0  02:40      9.65    0.74    0.64
  4                    CONDUIT      0.00     0  00:00      0.00    0.00    0.00
  CC-Pump-1            PUMP       200.00     0  02:25              1.00
  CC-Pump-2            PUMP       200.00     0  02:30              1.00
  JK-Pump-1            PUMP       285.05     0  02:56              0.95
  JK-Pump-2            PUMP       300.00     0  00:00              1.00
  XR-Pump-1            PUMP        95.00     0  00:00              1.00
  XR-Pump-2            PUMP        95.00     0  00:00              1.00
  XR-Pump-3            PUMP        95.00     0  00:00              1.00
  XR-Pump-4            PUMP        95.00     0  00:20              1.00
  
  
  ***************************
  Flow Classification Summary
  ***************************
  
  -------------------------------------------------------------------------------------
                      Adjusted    ---------- Fraction of Time in Flow Class ---------- 
                       /Actual         Up    Down  Sub   Sup   Up    Down  Norm  Inlet 
  Conduit               Length    Dry  Dry   Dry   Crit  Crit  Crit  Crit  Ltd   Ctrl  
  -------------------------------------------------------------------------------------
  WS02003066WSF200        1.00   0.04  0.02  0.00  0.00  0.94  0.00  0.00  0.72  0.00
  WS02006287WS02006284    1.00   0.04  0.02  0.00  0.68  0.27  0.00  0.00  0.78  0.00
  WS02006284WS02006280    1.00   0.05  0.00  0.00  0.00  0.00  0.00  0.95  0.00  0.00
  WS02006280WS02006229    1.00   0.05  0.00  0.00  0.00  0.00  0.00  0.95  0.00  0.00
  WS02006229WS02006228    1.00   0.00  0.00  0.00  0.99  0.00  0.00  0.01  0.00  0.00
  WS02006256WS02006235    1.00   0.00  0.00  0.00  1.00  0.00  0.00  0.00  0.00  0.00
  WS02006253WS02006251    1.00   0.03  0.01  0.00  0.95  0.00  0.00  0.00  0.00  0.00
  WS02006252WS02006251    1.00   0.09  0.00  0.00  0.00  0.00  0.91  0.00  0.00  0.00
  WS02006251WS02006249    1.00   0.00  0.00  0.00  1.00  0.00  0.00  0.00  0.31  0.00
  WS02006249WS02006248    1.00   0.00  0.02  0.00  0.86  0.00  0.12  0.00  0.00  0.00
  WS02006248WS02006247    1.00   0.02  0.00  0.00  0.97  0.00  0.00  0.00  0.21  0.00
  WS02006247WS02006245    1.00   0.02  0.00  0.00  0.98  0.00  0.00  0.00  0.00  0.00
  WS02006245WS02006243    1.00   0.01  0.00  0.00  0.94  0.00  0.00  0.04  0.02  0.00
  WS02006243WS02006242    1.00   0.01  0.00  0.00  0.99  0.00  0.00  0.00  0.26  0.00
  WS02006242WS02006240    1.00   0.00  0.00  0.00  1.00  0.00  0.00  0.00  0.00  0.00
  WS02006240WS02006239    1.00   0.00  0.00  0.00  0.95  0.00  0.00  0.04  0.01  0.00
  WS02006239WS02006238    1.00   0.00  0.00  0.00  1.00  0.00  0.00  0.00  0.00  0.00
  WS02006238WS02006235    1.00   0.00  0.00  0.00  1.00  0.00  0.00  0.00  0.00  0.00
  WS02006235WS02006234    1.00   0.00  0.00  0.00  0.95  0.00  0.05  0.00  0.00  0.00
  WS02006234WS02006232    1.00   0.00  0.00  0.00  1.00  0.00  0.00  0.00  0.07  0.00
  WS02006232WS02006231    1.00   0.00  0.00  0.00  0.99  0.00  0.00  0.00  0.00  0.00
  WS02006231WS02006230    1.00   0.00  0.00  0.00  0.58  0.00  0.42  0.00  0.00  0.00
  WS02006230WS02006229    1.00   0.00  0.00  0.00  0.98  0.00  0.00  0.02  0.00  0.00
  WS02006228WS02006109    1.00   0.00  0.00  0.00  1.00  0.00  0.00  0.00  0.00  0.00
  WS02006116WS02004401    1.00   0.03  0.00  0.00  0.97  0.00  0.00  0.00  0.00  0.00
  WS02006115WS02006116    1.00   0.03  0.00  0.00  0.97  0.00  0.00  0.01  0.00  0.00
  WS02006113WS02006111    1.00   0.02  0.00  0.00  0.00  0.98  0.00  0.00  0.12  0.00
  WS02006112WS02006115    1.00   0.02  0.00  0.00  0.97  0.00  0.00  0.00  0.00  0.00
  WS02006111WS02006112    1.00   0.02  0.00  0.00  0.97  0.00  0.00  0.00  0.98  0.00
  WS02006110WS02006113    1.00   0.01  0.01  0.00  0.98  0.00  0.00  0.00  0.00  0.00
  WS02006109WS02006110    1.00   0.00  0.01  0.00  0.98  0.00  0.01  0.00  0.00  0.00
  WS02004411WS02004412    1.00   0.04  0.00  0.00  0.96  0.00  0.00  0.00  0.00  0.00
  WS02004401WS02004402    1.00   0.03  0.00  0.00  0.97  0.00  0.00  0.00  0.00  0.00
  WS02004413WS02003067    1.00   0.04  0.01  0.00  0.00  0.00  0.94  0.00  0.00  0.00
  WS02004412WS02004413    1.00   0.04  0.00  0.00  0.96  0.00  0.00  0.00  0.03  0.00
  WS02004410WS02004411    1.00   0.04  0.00  0.00  0.96  0.00  0.00  0.00  0.04  0.00
  WS02004409WS02004410    1.00   0.04  0.00  0.00  0.96  0.00  0.00  0.00  0.04  0.00
  WS02004407WS02004409    1.00   0.04  0.00  0.00  0.96  0.00  0.00  0.00  0.89  0.00
  WS02004406WS02004407    1.00   0.00  0.04  0.00  0.96  0.00  0.00  0.00  0.00  0.00
  WS02004405WS02004406    1.00   0.00  0.00  0.00  1.00  0.00  0.00  0.00  0.00  0.00
  WS02004404WS02004405    1.00   0.00  0.00  0.00  1.00  0.00  0.00  0.00  0.00  0.00
  WS02004403WS02004404    1.00   0.00  0.03  0.00  0.97  0.00  0.00  0.00  0.01  0.00
  WS02004402WS02004403    1.00   0.03  0.00  0.00  0.97  0.00  0.00  0.00  0.00  0.00
  WS02004139WS02001211    1.00   0.00  0.00  0.00  1.00  0.00  0.00  0.00  0.00  0.00
  WS02004138WS02004139    1.00   0.00  0.00  0.00  0.99  0.01  0.00  0.00  1.00  0.00
  WS02003067WS02003066    1.00   0.06  0.00  0.00  0.94  0.00  0.00  0.00  0.00  0.00
  WS02001213WS02003059    1.00   0.00  0.00  0.00  0.99  0.00  0.00  0.00  0.00  0.00
  WS02001212WS02001213    1.00   0.00  0.00  0.00  0.84  0.00  0.15  0.00  0.00  0.00
  WS02001211WS02001212    1.00   0.00  0.00  0.00  1.00  0.00  0.00  0.00  0.00  0.00
  WS02003072WS02003073    1.00   0.00  0.00  0.00  0.00  0.00  0.00  1.00  0.00  0.00
  WS02003069WS02003072    1.00   0.00  0.00  0.00  0.99  0.01  0.00  0.00  0.27  0.00
  WS02003060WS02003069    1.00   0.00  0.00  0.00  0.98  0.02  0.00  0.00  0.15  0.00
  WS02003059WS02003060    1.00   0.00  0.00  0.00  1.00  0.00  0.00  0.00  0.01  0.00
  HS02004901HS02004770    1.00   0.05  0.00  0.00  0.95  0.00  0.00  0.00  0.03  0.00
  HS02004876HS02004881    1.00   0.02  0.00  0.00  0.98  0.00  0.00  0.00  0.00  0.00
  HS02004870HS02004876    1.00   0.01  0.00  0.00  0.99  0.00  0.00  0.00  0.95  0.00
  HS02004842HS02004848    1.00   0.00  0.05  0.00  0.95  0.00  0.00  0.00  0.69  0.00
  HS02004837HS02004842    1.00   0.00  0.00  0.00  0.99  0.01  0.00  0.00  0.11  0.00
  HS02004830HS02004837    1.00   0.00  0.00  0.00  1.00  0.00  0.00  0.00  0.99  0.00
  HS02004824HS02004830    1.00   0.00  0.00  0.00  1.00  0.00  0.00  0.00  0.00  0.00
  HS02004817HS02004824    1.00   0.00  0.00  0.00  1.00  0.00  0.00  0.00  1.00  0.00
  HS02004770HS02004777    1.00   0.00  0.05  0.00  0.95  0.00  0.00  0.00  0.07  0.00
  HS02004799HS02004480    1.00   0.00  0.03  0.00  0.94  0.00  0.03  0.00  0.00  0.00
  HS02004792HS02004799    1.00   0.00  0.00  0.00  0.99  0.01  0.00  0.00  0.98  0.00
  HS02004788HS02004792    1.00   0.00  0.00  0.00  0.99  0.01  0.00  0.00  0.98  0.00
  HS02004785HS02004788    1.00   0.00  0.00  0.00  1.00  0.00  0.00  0.00  0.00  0.00
  HS02004777HS02004785    1.00   0.00  0.00  0.00  1.00  0.00  0.00  0.00  0.21  0.00
  HS02004480HS02004478    1.00   0.05  0.00  0.00  0.72  0.00  0.00  0.23  0.00  0.00
  HS02004479HS02004480    1.00   0.03  0.00  0.00  0.97  0.00  0.00  0.00  0.16  0.00
  HS02004862HS02004870    1.00   0.00  0.00  0.00  1.00  0.00  0.00  0.00  0.06  0.00
  HS02004848HS02004852    1.00   0.05  0.00  0.00  0.95  0.00  0.00  0.00  0.71  0.00
  HS02004856HS02004862    1.00   0.00  0.07  0.00  0.93  0.00  0.00  0.00  0.74  0.00
  HS02004852HS02004856    1.00   0.05  0.01  0.00  0.95  0.00  0.00  0.00  0.83  0.00
  HS02004802HS02004478    1.00   0.05  0.01  0.00  0.95  0.00  0.00  0.00  0.01  0.00
  HS02004478WS02006287    1.00   0.06  0.00  0.00  0.88  0.06  0.00  0.00  0.79  0.00
  HS02004817HS02004807    1.00   0.00  0.05  0.00  0.95  0.00  0.00  0.00  0.00  0.00
  HS02004807HS02004802    1.00   0.05  0.00  0.00  0.95  0.00  0.00  0.00  0.01  0.00
  YS02001759YS02001757    1.00   0.00  0.00  0.00  1.00  0.00  0.00  0.00  0.17  0.00
  YS02001762YS02001759    1.00   0.00  0.00  0.00  1.00  0.00  0.00  0.00  0.05  0.00
  YS02001765YS02001762    1.00   0.00  0.00  0.00  1.00  0.00  0.00  0.00  0.22  0.00
  YS02001770YS02001767    1.00   0.00  0.00  0.00  1.00  0.00  0.00  0.00  0.00  0.00
  YS02001774YS02001770    1.00   0.00  0.05  0.00  0.95  0.00  0.00  0.00  0.07  0.00
  YS02001779YS02001774    1.00   0.00  0.00  0.00  1.00  0.00  0.00  0.00  0.27  0.00
  YS02001649YS02001757    1.00   0.00  0.00  0.00  1.00  0.00  0.00  0.00  0.19  0.00
  YS02001767YS02001765    1.00   0.00  0.00  0.00  1.00  0.00  0.00  0.00  0.01  0.00
  YS02006561YS02001783    1.00   0.07  0.00  0.00  0.00  0.93  0.00  0.00  0.73  0.00
  YS02001783YS02001784    1.00   0.00  0.07  0.00  0.93  0.00  0.00  0.00  0.00  0.00
  YS02001784YS02001785    1.00   0.00  0.00  0.00  1.00  0.00  0.00  0.00  0.25  0.00
  YS02001788YS02001790    1.00   0.00  0.00  0.00  0.07  0.93  0.00  0.00  0.80  0.00
  YS02001790YS02001791    1.00   0.00  0.00  0.00  0.02  0.98  0.00  0.00  0.51  0.00
  YS02001791YS02001793    1.00   0.00  0.00  0.00  0.00  1.00  0.00  0.00  0.00  0.00
  YS02001910YS02001907    1.00   0.00  0.00  0.00  0.97  0.00  0.00  0.03  0.13  0.00
  YS02001786YS02001788    1.00   0.00  0.00  0.00  0.08  0.92  0.00  0.00  0.00  0.00
  YS02001915YS02001910    1.00   0.00  0.00  0.00  0.99  0.01  0.00  0.00  0.24  0.00
  YS02001918YS02001915    1.00   0.00  0.01  0.00  0.98  0.02  0.00  0.00  0.81  0.00
  YS02001923YS02001920    1.00   0.00  0.00  0.00  1.00  0.00  0.00  0.00  1.00  0.00
  YS02001926YS02001923    1.00   0.00  0.04  0.00  0.00  0.00  0.96  0.00  0.00  0.00
  YS02001929YS02001926    1.00   0.00  0.05  0.00  0.95  0.00  0.00  0.00  0.87  0.00
  YS02001920YS02001918    1.00   0.00  0.01  0.00  0.99  0.00  0.00  0.00  0.00  0.00
  YS02001629YS02163301    1.00   0.06  0.00  0.00  0.93  0.00  0.00  0.00  0.00  0.00
  YS02001619YS02001622    1.00   0.05  0.00  0.00  0.95  0.00  0.00  0.00  0.00  0.00
  YS02001622YS02001625    1.00   0.05  0.00  0.00  0.95  0.00  0.00  0.00  0.13  0.00
  YS02001625YS02001629    1.00   0.05  0.03  0.00  0.91  0.00  0.02  0.00  0.00  0.00
  YS02163301YS02001633    1.00   0.00  0.06  0.00  0.94  0.00  0.00  0.00  0.00  0.00
  YS02163601YS02164001    1.00   0.00  0.04  0.00  0.96  0.00  0.00  0.00  0.00  0.00
  YS02164001YS02001641    1.00   0.01  0.03  0.00  0.96  0.00  0.00  0.00  0.07  0.00
  YS02001641YS02001644    1.00   0.00  0.01  0.00  0.99  0.00  0.00  0.00  0.00  0.00
  YS02001647YS02001649    1.00   0.00  0.07  0.00  0.93  0.00  0.00  0.00  0.01  0.00
  YS02006553YS02006556    1.00   0.01  0.00  0.00  0.99  0.00  0.00  0.00  0.03  0.00
  YS02006556YS02006558    1.00   0.00  0.00  0.00  1.00  0.00  0.00  0.00  0.00  0.00
  YSB6556YSB1171          1.00   0.03  0.02  0.00  0.96  0.00  0.00  0.00  0.00  0.00
  YS02001907YS02006553    1.00   0.00  0.02  0.00  0.97  0.00  0.00  0.00  0.00  0.00
  YS02006558YS02006561    1.00   0.07  0.00  0.00  0.00  0.93  0.00  0.00  0.72  0.00
  YS02001633YS02163601    1.00   0.00  0.01  0.00  0.99  0.00  0.00  0.00  0.20  0.00
  YS02001644YS02001647    1.00   0.00  0.07  0.00  0.93  0.00  0.00  0.00  0.00  0.00
  YS02001745YS02001748    1.00   0.00  0.00  0.00  0.57  0.09  0.00  0.34  0.49  0.00
  YS02001748YS02001751    1.00   0.00  0.00  0.00  0.97  0.03  0.00  0.00  0.27  0.00
  YS02001751YS02001754    1.00   0.00  0.00  0.00  0.92  0.00  0.00  0.08  0.02  0.00
  YS02001754YS02001757    1.00   0.00  0.00  0.00  0.99  0.01  0.00  0.00  0.26  0.00
  YS02001882YS02001884    1.00   0.06  0.00  0.00  0.94  0.00  0.00  0.00  0.00  0.00
  YS02001884YS02001887    1.00   0.03  0.01  0.00  0.96  0.00  0.00  0.00  0.00  0.00
  YS02001890YS02001895    1.00   0.00  0.06  0.00  0.93  0.00  0.00  0.00  0.00  0.00
  YS02001895YS02001898    1.00   0.07  0.00  0.00  0.93  0.00  0.01  0.00  0.00  0.00
  YS02001898YS02001901    1.00   0.06  0.00  0.00  0.93  0.00  0.00  0.00  0.02  0.00
  YS02001901YS02001904    1.00   0.06  0.00  0.00  0.94  0.00  0.00  0.00  0.00  0.00
  YS02001904YS02001907    1.00   0.00  0.06  0.00  0.94  0.00  0.00  0.00  0.00  0.00
  YS02001887YS02001890    1.00   0.00  0.00  0.00  0.97  0.00  0.02  0.00  0.00  0.00
  YS02001652YS02001649    1.00   0.00  0.00  0.00  1.00  0.00  0.00  0.00  0.26  0.00
  YS02001655YS02001652    1.00   0.00  0.00  0.00  0.92  0.00  0.00  0.07  0.02  0.00
  YS02001658YS02001655    1.00   0.00  0.06  0.00  0.91  0.03  0.00  0.00  0.29  0.00
  YS02001661YS02001658    1.00   0.06  0.00  0.00  0.62  0.32  0.00  0.00  0.73  0.00
  YS02001664YS02001661    1.00   0.05  0.00  0.00  0.78  0.18  0.00  0.00  0.86  0.00
  YSB1154YSB6556          1.00   0.04  0.00  0.00  0.96  0.00  0.00  0.00  0.02  0.00
  YSB1174YSB1171          1.00   0.03  0.01  0.00  0.96  0.00  0.00  0.00  0.00  0.00
  YSB1171HS02004479       1.00   0.03  0.00  0.00  0.97  0.00  0.00  0.00  0.13  0.00
  HS02004881HS02006253    1.00   0.03  0.00  0.00  0.71  0.01  0.00  0.25  0.53  0.00
  YS02001793JiankangQianchi    1.00   0.00  0.00  0.00  0.07  0.92  0.00  0.00  0.11  0.00
  YS02001757CaochengTiaoxuchi    1.00   0.00  0.09  0.00  0.91  0.00  0.00  0.00  0.00  0.00
  WSF200WS02003060        1.00   0.00  0.04  0.00  0.73  0.23  0.00  0.00  0.49  0.00
  1                       1.00   0.00  0.00  0.00  0.00  1.00  0.00  0.00  0.38  0.00
  2                       1.00   0.62  0.00  0.00  0.00  0.38  0.00  0.00  0.10  0.00
  3                       1.00   0.24  0.00  0.00  0.00  0.76  0.00  0.00  0.41  0.00
  4                       1.00   1.00  0.00  0.00  0.00  0.00  0.00  0.00  0.00  0.00
  
  
  *************************
  Conduit Surcharge Summary
  *************************
  
  ----------------------------------------------------------------------------
                                                           Hours        Hours 
                         --------- Hours Full --------   Above Full   Capacity
  Conduit                Both Ends  Upstream  Dnstream   Normal Flow   Limited
  ----------------------------------------------------------------------------
  WS02006229WS02006228        1.41      1.78      1.41      3.51         1.40
  WS02006256WS02006235        5.71      5.71      7.33      2.10         0.01
  WS02006252WS02006251        1.24      1.24      2.23      1.98         0.01
  WS02006251WS02006249        0.01      0.01      0.01      1.26         0.01
  WS02006249WS02006248        0.01      0.01      0.01      3.68         0.01
  WS02006247WS02006245        0.01      0.01      0.01      4.22         0.01
  WS02006245WS02006243        0.01      0.01      0.01      0.01         0.01
  WS02006243WS02006242        0.12      0.12      1.11      0.01         0.01
  WS02006242WS02006240        0.25      0.25      1.58      2.36         0.01
  WS02006240WS02006239        0.31      0.31      0.37      0.01         0.01
  WS02006239WS02006238        1.37      1.37      1.56      0.10         0.10
  WS02006238WS02006235        1.32      1.32      1.89      0.01         0.01
  WS02006235WS02006234        0.27      0.27      1.02      5.73         0.01
  WS02006234WS02006232        0.41      0.41      1.96      0.01         0.01
  WS02006232WS02006231        0.01      0.01      1.96      0.01         0.01
  WS02006231WS02006230        0.01      0.01      0.01      5.72         0.01
  WS02006230WS02006229        2.76      3.15      2.76      5.82         2.76
  WS02006228WS02006109        1.59      2.21      1.59      4.57         1.59
  WS02006112WS02006115        0.01      0.01      0.28      0.01         0.01
  WS02006111WS02006112        0.01      0.01      3.85      0.01         0.01
  WS02006110WS02006113        0.01      0.01      1.97      0.01         0.01
  WS02006109WS02006110        0.05      0.05      2.20      0.06         0.01
  WS02004405WS02004406        0.01      0.01      0.01      0.19         0.01
  WS02004404WS02004405        0.01      0.01      0.01      5.59         0.01
  WS02003072WS02003073        0.01      0.01      0.01      5.00         0.01
  YS02001759YS02001757        2.15      2.15      3.73      0.01         0.01
  YS02001762YS02001759        1.09      1.09      2.15      0.01         0.01
  YS02001765YS02001762        0.52      0.52      1.09      0.01         0.01
  YS02001770YS02001767        0.01      0.01      0.04      0.01         0.01
  YS02001774YS02001770        0.01      0.01      0.88      0.01         0.01
  YS02001779YS02001774        0.01      0.01      0.88      0.01         0.01
  YS02001649YS02001757        1.26      1.26      3.73      0.01         0.01
  YS02001767YS02001765        0.04      0.04      0.52      0.01         0.01
  YS02001629YS02163301        0.01      0.01      0.01      0.01         0.01
  YS02163301YS02001633        0.01      0.01      0.55      0.01         0.01
  YS02163601YS02164001        0.42      0.42      1.15      0.01         0.01
  YS02164001YS02001641        0.42      0.42      0.70      0.01         0.01
  YS02001641YS02001644        0.69      0.70      0.75      0.01         0.12
  YS02001647YS02001649        0.01      0.01      1.26      0.01         0.01
  YS02001633YS02163601        0.14      0.14      1.15      0.01         0.01
  YS02001644YS02001647        0.01      0.01      0.75      0.01         0.01
  YS02001754YS02001757        0.01      0.01      3.73      0.01         0.01
  YS02001652YS02001649        0.01      0.01      1.26      0.01         0.01
  YS02001793JiankangQianchi        0.01      0.01      0.15      0.01         0.01
  YS02001757CaochengTiaoxuchi        0.01      0.01      3.73      0.01         0.01
  
  
  ***************
  Pumping Summary
  ***************
  
  ---------------------------------------------------------------------------------------------------------
                                                  Min       Avg       Max     Total     Power    % Time Off
                        Percent   Number of      Flow      Flow      Flow    Volume     Usage    Pump Curve
  Pump                 Utilized   Start-Ups       LPS       LPS       LPS  10^6 ltr     Kw-hr    Low   High
  ---------------------------------------------------------------------------------------------------------
  CC-Pump-1               57.60           6      0.00    131.40    200.00     2.133      8.50    0.0   60.0
  CC-Pump-2               57.44           3      0.00    143.13    200.00     2.280      9.11    0.0   62.8
  JK-Pump-1               89.35           5      0.00    119.54    285.05     2.170     42.58    0.0    0.0
  JK-Pump-2               76.60           5      0.00    136.28    300.00     2.250     43.21    0.0    0.0
  XR-Pump-1               74.46           8      0.00     73.25     95.00     1.482     18.52    0.0    0.0
  XR-Pump-2               85.11           7      0.00     61.37     95.00     1.482     18.77    0.0    0.0
  XR-Pump-3               82.97           5      0.00     77.49     95.00     1.796     22.35    0.0    0.0
  XR-Pump-4               95.72           7      0.00     73.79     95.00     2.080     27.82    0.0    0.0
  

  Analysis begun on:  Tue Dec 21 15:34:12 2021
  Analysis ended on:  Tue Dec 21 15:34:15 2021
  Total elapsed time: 00:00:03