
  EPA STORM WATER MANAGEMENT MODEL - VERSION 5.1 (Build 5.3.0.dev0)
  --------------------------------------------------------------

  WARNING 04: minimum elevation drop used for Conduit WS02004404WS02004405
  WARNING 03: negative offset ignored for Link YS02001904YS02001907
  
  *********************************************************
  NOTE: The summary statistics displayed in this report are
  based on results found at every computational time step,  
  not just on results from each reporting time step.
  *********************************************************
  
  ****************
  Analysis Options
  ****************
  Flow Units ............... LPS
  Process Models:
    Rainfall/Runoff ........ YES
    RDII ................... NO
    Snowmelt ............... NO
    Groundwater ............ NO
    Flow Routing ........... YES
    Ponding Allowed ........ NO
    Water Quality .......... NO
  Infiltration Method ...... HORTON
  Flow Routing Method ...... DYNWAVE
  Surcharge Method ......... EXTRAN
  Starting Date ............ 08/28/2015 08:00:00
  Ending Date .............. 08/28/2015 15:50:00
  Antecedent Dry Days ...... 8.0
  Report Time Step ......... 00:01:00
  Wet Time Step ............ 00:01:00
  Dry Time Step ............ 00:01:00
  Routing Time Step ........ 5.00 sec
  Variable Time Step ....... YES
  Maximum Trials ........... 8
  Number of Threads ........ 4
  Head Tolerance ........... 0.001500 m
  
  
  **************************        Volume         Depth
  Runoff Quantity Continuity     hectare-m            mm
  **************************     ---------       -------
  Total Precipitation ......         3.147         6.891
  Evaporation Loss .........         0.000         0.000
  Infiltration Loss ........         0.796         1.742
  Surface Runoff ...........         1.432         3.135
  Final Storage ............         0.920         2.015
  Continuity Error (%) .....        -0.018
  
  
  **************************        Volume        Volume
  Flow Routing Continuity        hectare-m      10^6 ltr
  **************************     ---------     ---------
  Dry Weather Inflow .......         0.616         6.165
  Wet Weather Inflow .......         1.431        14.311
  Groundwater Inflow .......         0.000         0.000
  RDII Inflow ..............         0.000         0.000
  External Inflow ..........         0.102         1.024
  External Outflow .........         1.818        18.180
  Flooding Loss ............         0.063         0.631
  Evaporation Loss .........         0.000         0.000
  Exfiltration Loss ........         0.000         0.000
  Initial Stored Volume ....         0.076         0.761
  Final Stored Volume ......         0.455         4.552
  Continuity Error (%) .....        -4.957
  
  
  *************************
  Highest Continuity Errors
  *************************
  Node HS02004842 (25.40%)
  Node JK-storage (-23.99%)
  Node YS02001774 (23.23%)
  Node YS02001884 (19.95%)
  Node YSB1171 (5.83%)
  
  
  ***************************
  Time-Step Critical Elements
  ***************************
  Link 3 (47.22%)
  Link WS02006252WS02006251 (40.19%)
  Link WS02006238WS02006235 (6.32%)
  Link WS02006280WS02006229 (1.73%)
  
  
  ********************************
  Highest Flow Instability Indexes
  ********************************
  Link WS02006113WS02006111 (38)
  Link WS02006111WS02006112 (23)
  Link YS02006558YS02006561 (14)
  Link YS02001779YS02001774 (11)
  Link YS02001774YS02001770 (10)
  
  
  *************************
  Routing Time Step Summary
  *************************
  Minimum Time Step           :     0.41 sec
  Average Time Step           :     0.87 sec
  Maximum Time Step           :     5.00 sec
  Percent in Steady State     :    -0.00
  Average Iterations per Step :     3.58
  Percent Not Converging      :    19.45
  
  
  ***************************
  Subcatchment Runoff Summary
  ***************************
  
  ------------------------------------------------------------------------------------------------------------------------------
                            Total      Total      Total      Total     Imperv       Perv      Total       Total     Peak  Runoff
                           Precip      Runon       Evap      Infil     Runoff     Runoff     Runoff      Runoff   Runoff   Coeff
  Subcatchment                 mm         mm         mm         mm         mm         mm         mm    10^6 ltr      LPS
  ------------------------------------------------------------------------------------------------------------------------------
  sub0                       6.89       0.00       0.00       0.48       5.14       0.00       5.14        0.00     1.72   0.746
  sub1                       6.89       0.00       0.00       0.76       4.88       0.00       4.88        0.03     9.27   0.708
  sub2                       6.89       0.00       0.00       2.55       3.43       0.00       3.43        0.03     8.25   0.498
  sub3                       6.89       0.00       0.00       2.55       3.40       0.00       3.40        0.08    17.12   0.493
  sub4                       6.89       0.00       0.00       0.76       4.73       0.00       4.73        0.10    19.36   0.687
  sub5                       6.89       0.00       0.00       0.48       5.10       0.00       5.10        0.06    16.48   0.740
  sub7                       6.89       0.00       0.00       0.62       5.02       0.00       5.02        0.02     5.74   0.728
  sub8                       6.89       0.00       0.00       0.62       5.01       0.00       5.01        0.03    10.18   0.727
  sub9                       6.89       0.00       0.00       0.62       5.00       0.00       5.00        0.02     7.56   0.726
  sub10                      6.89       0.00       0.00       0.55       5.05       0.00       5.05        0.06    16.42   0.733
  sub11                      6.89       0.00       0.00       0.55       5.06       0.00       5.06        0.06    19.13   0.735
  sub12                      6.89       0.00       0.00       0.90       4.81       0.00       4.81        0.04    15.99   0.697
  sub14                      6.89       0.00       0.00       0.62       5.00       0.00       5.00        0.05    14.78   0.726
  sub15                      6.89       0.00       0.00       2.07       3.84       0.00       3.84        0.07    20.07   0.558
  sub16                      6.89       0.00       0.00       2.27       3.70       0.00       3.70        0.04    14.12   0.537
  sub17                      6.89       0.00       0.00       2.20       3.75       0.00       3.75        0.03    11.42   0.544
  sub22                      6.89       0.00       0.00       2.96       3.14       0.00       3.14        0.20    65.39   0.456
  sub23                      6.89       0.00       0.00       2.55       3.47       0.00       3.47        0.17    55.59   0.504
  sub60                      6.89       0.00       0.00       0.83       3.52       0.00       3.52        1.07   103.27   0.511
  sub61                      6.89       0.00       0.00       1.17       3.72       0.00       3.72        1.15   128.06   0.540
  sub62                      6.89       0.00       0.00       0.55       4.00       0.00       4.00        1.23   131.31   0.581
  sub63                      6.89       0.00       0.00       2.00       3.30       0.00       3.30        1.00   118.97   0.479
  sub64                      6.89       0.00       0.00       1.03       3.37       0.00       3.37        1.02    98.15   0.488
  sub65                      6.89       0.00       0.00       0.90       3.41       0.00       3.41        1.05    99.66   0.495
  sub66                      6.89       0.00       0.00       2.00       2.93       0.00       2.93        0.90    89.65   0.425
  sub67                      6.89       0.00       0.00       0.55       4.36       0.00       4.36        1.35   166.79   0.633
  sub68                      6.89       0.00       0.00       0.96       3.95       0.00       3.95        1.21   141.17   0.573
  sub69                      6.89       0.00       0.00       1.03       4.22       0.00       4.22        0.99   138.50   0.612
  sub70                      6.89       4.31       0.00       3.81       5.29       0.00       5.29        1.21   116.43   0.473
  sub71                      6.89       0.00       0.00       0.55       3.84       0.00       3.84        0.91    92.03   0.558
  sub72                      6.89       0.00       0.00       0.48       2.78       0.00       2.78        0.57    44.19   0.404
  sub73                      6.89       5.15       0.00       4.09       5.48       0.00       5.48        1.29   100.82   0.455
  sub74                      6.89       0.00       0.00       5.17       1.27       0.00       1.27        0.51    76.91   0.184
  
  
  ******************
  Node Depth Summary
  ******************
  
  ---------------------------------------------------------------------------------
                                 Average  Maximum  Maximum  Time of Max    Reported
                                   Depth    Depth      HGL   Occurrence   Max Depth
  Node                 Type       Meters   Meters   Meters  days hr:min      Meters
  ---------------------------------------------------------------------------------
  WS02001211           JUNCTION     0.66     0.77     5.61     0  04:27        0.77
  WS02001212           JUNCTION     0.38     0.48     5.54     0  04:26        0.48
  WS02001213           JUNCTION     0.62     0.73     5.50     0  02:32        0.73
  WS02003069           JUNCTION     0.44     0.57     5.16     0  02:33        0.57
  WS02003072           JUNCTION     0.51     0.63     5.00     0  02:34        0.63
  WS02003073           JUNCTION     0.31     0.39     4.45     0  02:34        0.39
  WS02003060           JUNCTION     0.40     0.51     5.44     0  02:32        0.51
  WS02003066           JUNCTION     0.24     0.30     5.86     0  02:31        0.30
  WS02003059           JUNCTION     0.68     0.79     5.48     0  02:32        0.79
  WS02003067           JUNCTION     0.58     0.71     6.03     0  02:31        0.71
  WS02004401           JUNCTION     0.68     0.87     6.87     0  02:27        0.87
  WS02004402           JUNCTION     0.72     0.90     6.86     0  02:27        0.90
  WS02004403           JUNCTION     0.74     0.91     6.84     0  02:27        0.91
  WS02004404           JUNCTION     0.81     0.98     6.83     0  02:27        0.98
  WS02004406           JUNCTION     0.82     0.97     6.80     0  02:27        0.97
  WS02004409           JUNCTION     0.50     0.68     6.45     0  02:30        0.68
  WS02004410           JUNCTION     0.52     0.70     6.42     0  02:30        0.70
  WS02004411           JUNCTION     0.54     0.70     6.38     0  02:30        0.70
  WS02004412           JUNCTION     0.55     0.71     6.35     0  02:30        0.71
  WS02004413           JUNCTION     0.71     0.87     6.34     0  02:31        0.87
  WS02004405           JUNCTION     0.81     0.97     6.82     0  02:27        0.97
  WS02006109           JUNCTION     0.77     1.03     7.64     0  02:21        1.02
  WS02006110           JUNCTION     0.76     0.96     7.54     0  02:21        0.96
  WS02006111           JUNCTION     0.22     0.30     7.01     0  02:22        0.30
  WS02006112           JUNCTION     0.86     1.08     6.97     0  02:26        1.07
  WS02006113           JUNCTION     0.35     0.48     7.37     0  02:22        0.47
  WS02006115           JUNCTION     0.58     0.78     6.92     0  02:26        0.78
  WS02006116           JUNCTION     0.66     0.86     6.90     0  02:27        0.86
  WS02006230           JUNCTION     0.75     1.09     7.84     0  02:21        1.09
  WS02006231           JUNCTION     0.50     0.79     7.92     0  02:21        0.74
  WS02006232           JUNCTION     0.64     0.94     7.98     0  02:21        0.87
  WS02006234           JUNCTION     0.56     0.90     8.06     0  02:21        0.81
  WS02006235           JUNCTION     0.59     0.91     8.07     0  02:21        0.83
  WS02006238           JUNCTION     0.62     0.93     8.07     0  02:21        0.85
  WS02006240           JUNCTION     0.52     0.94     8.23     0  02:21        0.75
  WS02006242           JUNCTION     0.58     1.12     8.39     0  02:21        0.80
  WS02006243           JUNCTION     0.46     0.71     8.13     0  02:21        0.69
  WS02006245           JUNCTION     0.44     0.68     8.17     0  02:21        0.67
  WS02006247           JUNCTION     0.45     1.47     8.97     0  02:21        0.66
  WS02006248           JUNCTION     0.40     0.66     8.25     0  02:22        0.66
  WS02006249           JUNCTION     0.43     0.63     8.22     0  02:22        0.60
  WS02006239           JUNCTION     0.58     1.06     8.27     0  02:21        0.81
  WS02006251           JUNCTION     0.42     0.63     8.30     0  02:19        0.63
  WS02006252           JUNCTION     0.38     0.59     8.83     0  05:34        0.59
  WS02006253           JUNCTION     0.45     0.66     8.30     0  02:20        0.66
  WS02006256           JUNCTION     1.05     2.35     9.28     0  00:00        1.20
  WS02004138           JUNCTION     0.15     0.19     7.44     0  04:22        0.19
  WS02004407           JUNCTION     0.23     0.30     6.62     0  02:28        0.30
  WS02006228           JUNCTION     0.77     1.09     7.74     0  02:21        1.07
  WS02006229           JUNCTION     0.74     1.09     7.79     0  02:21        1.08
  WS02006280           JUNCTION     0.06     0.16     8.43     0  02:17        0.16
  WS02006284           JUNCTION     0.35     0.50     8.90     0  02:16        0.50
  WS02006287           JUNCTION     0.08     0.24     9.19     0  02:16        0.24
  WSF200               JUNCTION     0.22     0.32     5.55     0  02:30        0.32
  HS02004901           JUNCTION     0.11     0.25    10.07     0  02:14        0.25
  HS02004881           JUNCTION     0.01     0.03     9.06     0  02:16        0.03
  HS02004876           JUNCTION     0.04     0.11     9.14     0  02:13        0.11
  HS02004870           JUNCTION     0.01     0.05     9.33     0  02:17        0.05
  HS02004862           JUNCTION     0.01     0.05     9.44     0  02:18        0.05
  HS02004856           JUNCTION     0.08     0.11     9.54     0  02:17        0.11
  HS02004852           JUNCTION     0.01     0.03     9.54     0  02:18        0.03
  HS02004848           JUNCTION     0.01     0.03     9.63     0  02:17        0.03
  HS02004842           JUNCTION     0.33     0.36     9.63     0  02:17        0.36
  HS02004837           JUNCTION     0.03     0.05     9.63     0  02:17        0.05
  HS02004830           JUNCTION     0.04     0.07     9.54     0  02:17        0.07
  HS02004824           JUNCTION     0.02     0.04     9.45     0  02:20        0.04
  HS02004817           JUNCTION     0.43     0.54     9.39     0  02:17        0.54
  HS02004807           JUNCTION     0.12     0.22     9.39     0  02:17        0.22
  HS02004802           JUNCTION     0.15     0.26     9.38     0  02:17        0.26
  HS02004799           JUNCTION     0.10     0.28     9.50     0  02:14        0.28
  HS02004792           JUNCTION     0.03     0.11     9.64     0  02:14        0.11
  HS02004788           JUNCTION     0.02     0.08     9.98     0  02:15        0.08
  HS02004785           JUNCTION     0.04     0.15    10.05     0  02:14        0.15
  HS02004777           JUNCTION     0.14     0.27    10.07     0  02:14        0.27
  HS02004770           JUNCTION     0.11     0.24    10.07     0  02:14        0.24
  HS02004480           JUNCTION     0.07     0.22     9.46     0  02:15        0.22
  HS02004479           JUNCTION     0.10     0.26     9.46     0  02:15        0.26
  HS02004478           JUNCTION     0.05     0.14     9.37     0  02:16        0.14
  YS02001745           JUNCTION     0.31     0.65     8.16     0  05:06        0.64
  YS02001748           JUNCTION     0.69     1.11     8.19     0  05:06        1.08
  YS02001751           JUNCTION     0.87     1.98     8.85     0  04:00        1.26
  YS02001754           JUNCTION     1.12     1.94     8.55     0  04:00        1.53
  YS02001762           JUNCTION     1.32     1.80     8.20     0  05:16        1.74
  YS02001765           JUNCTION     1.27     1.76     8.21     0  05:16        1.69
  YS02001767           JUNCTION     1.24     1.74     8.23     0  03:45        1.66
  YS02001770           JUNCTION     1.23     1.77     8.27     0  03:45        1.66
  YS02001774           JUNCTION     1.30     1.88     8.30     0  03:46        1.74
  YS02001779           JUNCTION     1.05     1.63     8.32     0  03:46        1.48
  YS02001882           JUNCTION     0.32     0.53     7.25     0  02:53        0.53
  YS02001884           JUNCTION     0.41     0.63     7.25     0  02:53        0.63
  YS02001759           JUNCTION     1.35     1.83     8.20     0  05:11        1.77
  YS02001887           JUNCTION     0.49     0.71     7.25     0  02:53        0.71
  YS02001890           JUNCTION     0.52     0.74     7.25     0  02:53        0.74
  YS02001898           JUNCTION     0.29     0.50     7.23     0  02:53        0.50
  YS02001901           JUNCTION     0.41     0.62     7.23     0  02:54        0.62
  YS02001904           JUNCTION     0.39     0.60     7.23     0  02:54        0.60
  YS02001907           JUNCTION     0.72     0.94     7.23     0  02:54        0.94
  YS02001910           JUNCTION     0.51     0.72     7.23     0  02:52        0.72
  YS02001915           JUNCTION     0.30     0.51     7.23     0  02:52        0.51
  YS02001918           JUNCTION     0.09     0.16     7.23     0  02:53        0.16
  YS02001619           JUNCTION     0.83     1.49     8.41     0  04:57        1.43
  YS02001629           JUNCTION     1.18     1.84     8.39     0  05:09        1.78
  YS02001641           JUNCTION     1.29     1.88     8.32     0  05:16        1.80
  YS02001644           JUNCTION     1.29     1.86     8.29     0  05:16        1.78
  YS02001652           JUNCTION     1.14     1.94     8.54     0  03:34        1.55
  YS02001655           JUNCTION     0.90     1.99     8.84     0  03:34        1.28
  YS02001920           JUNCTION     0.19     0.24     7.25     0  03:00        0.24
  YS02001923           JUNCTION     0.07     0.10     7.36     0  03:01        0.10
  YS02001926           JUNCTION     0.16     0.20     7.64     0  03:01        0.20
  YS02001929           JUNCTION     0.07     0.10     7.79     0  03:01        0.10
  YS02001658           JUNCTION     0.63     1.25     8.39     0  05:11        0.99
  YS02001661           JUNCTION     0.41     0.75     8.15     0  05:11        0.73
  YS02001664           JUNCTION     0.09     0.25     8.18     0  05:11        0.25
  YS02001622           JUNCTION     0.85     1.50     8.41     0  04:57        1.45
  YS02001633           JUNCTION     1.28     1.93     8.38     0  05:09        1.85
  YS02001649           JUNCTION     1.33     1.84     8.23     0  05:12        1.76
  YS02001757           JUNCTION     1.45     1.93     8.20     0  05:12        1.87
  YS02001895           JUNCTION     0.28     0.49     7.24     0  02:53        0.49
  YS02001625           JUNCTION     1.14     1.78     8.38     0  04:57        1.74
  YS02163301           JUNCTION     1.21     1.87     8.39     0  05:09        1.80
  YS02163601           JUNCTION     1.33     1.96     8.36     0  05:09        1.88
  YS02164001           JUNCTION     1.27     1.88     8.33     0  05:16        1.80
  YS02001647           JUNCTION     1.12     1.64     8.25     0  05:16        1.57
  YSB1154              JUNCTION     0.24     0.41     9.47     0  02:15        0.41
  YSB6556              JUNCTION     0.14     0.30     9.47     0  02:15        0.30
  YSB1174              JUNCTION     0.20     0.36     9.47     0  02:15        0.36
  YSB1171              JUNCTION     0.39     0.56     9.47     0  02:15        0.56
  YS02006553           JUNCTION     0.72     0.95     7.23     0  02:55        0.94
  YS02006561           JUNCTION     0.16     0.27     6.93     0  02:55        0.27
  YS02006556           JUNCTION     0.69     0.91     7.22     0  02:54        0.91
  YS02006558           JUNCTION     0.74     0.96     7.22     0  02:55        0.95
  YS02001783           JUNCTION     0.28     0.62     6.76     0  03:35        0.60
  YS02001784           JUNCTION     0.32     0.69     6.75     0  03:34        0.67
  YS02001786           JUNCTION     0.28     0.68     6.71     0  03:34        0.68
  YS02001788           JUNCTION     0.21     0.72     6.69     0  03:34        0.69
  YS02001790           JUNCTION     0.28     1.41     7.06     0  03:31        1.01
  YS02001791           JUNCTION     0.23     2.18     7.65     0  02:55        1.15
  YS02001793           JUNCTION     0.28     2.63     7.46     0  02:51        1.78
  WS02004139           JUNCTION     0.60     0.72     5.63     0  04:27        0.72
  WSC                  OUTFALL      0.30     0.39     1.06     0  02:35        0.39
  3                    OUTFALL      0.09     0.23     6.23     0  00:00        0.20
  4                    OUTFALL      0.03     0.12     7.12     0  02:22        0.10
  5                    OUTFALL      0.00     0.00     5.00     0  00:00        0.00
  JK-storage           STORAGE      1.37     5.80     6.60     0  03:33        5.80
  CC-storage           STORAGE      0.69     1.11     8.11     0  05:13        1.11
  XR-storage           STORAGE      7.12     7.72     5.72     0  02:52        7.72
  
  
  *******************
  Node Inflow Summary
  *******************
  
  -------------------------------------------------------------------------------------------------
                                  Maximum  Maximum                  Lateral       Total        Flow
                                  Lateral    Total  Time of Max      Inflow      Inflow     Balance
                                   Inflow   Inflow   Occurrence      Volume      Volume       Error
  Node                 Type           LPS      LPS  days hr:min    10^6 ltr    10^6 ltr     Percent
  -------------------------------------------------------------------------------------------------
  WS02001211           JUNCTION      7.35   388.11     0  04:30       0.207        6.73       0.531
  WS02001212           JUNCTION      0.00   388.70     0  04:30           0        6.69       0.282
  WS02001213           JUNCTION      0.00   389.43     0  04:30           0        6.67       0.376
  WS02003069           JUNCTION      0.32   912.44     0  02:33     0.00902        14.5       0.212
  WS02003072           JUNCTION      0.00   911.70     0  02:33           0        14.4       0.257
  WS02003073           JUNCTION      1.82   913.45     0  02:34      0.0514        14.5       0.286
  WS02003060           JUNCTION     16.53   911.74     0  02:32       0.466        14.5       0.203
  WS02003066           JUNCTION      0.00   559.85     0  02:31           0        7.43       0.062
  WS02003059           JUNCTION      0.00   390.83     0  04:31           0        6.65       0.564
  WS02003067           JUNCTION      0.00   559.70     0  02:31           0        7.44       0.131
  WS02004401           JUNCTION      0.00   569.94     0  02:25           0        7.69       0.307
  WS02004402           JUNCTION      0.00   568.73     0  02:27           0        7.67       0.287
  WS02004403           JUNCTION      0.00   567.67     0  02:27           0        7.64       0.258
  WS02004404           JUNCTION      0.16   567.70     0  02:27     0.00457        7.63       0.191
  WS02004406           JUNCTION      0.00   568.00     0  02:27           0        7.59       0.465
  WS02004409           JUNCTION      0.00   567.22     0  02:28           0        7.55       0.239
  WS02004410           JUNCTION      0.00   563.04     0  02:28           0        7.53       0.265
  WS02004411           JUNCTION      0.00   561.04     0  02:30           0        7.51       0.268
  WS02004412           JUNCTION      0.00   560.18     0  02:30           0        7.49       0.286
  WS02004413           JUNCTION      0.00   559.89     0  02:30           0        7.47       0.419
  WS02004405           JUNCTION      0.04   567.90     0  02:27     0.00107        7.62       0.288
  WS02006109           JUNCTION      1.23   584.74     0  02:21      0.0347        7.79       0.295
  WS02006110           JUNCTION      0.00   584.80     0  02:21           0        7.77       0.277
  WS02006111           JUNCTION      0.00   608.76     0  02:22           0        7.74       0.065
  WS02006112           JUNCTION     11.42   598.94     0  02:22      0.0322        7.76       0.389
  WS02006113           JUNCTION      0.00   588.49     0  02:22           0        7.75       0.151
  WS02006115           JUNCTION      0.00   599.04     0  02:23           0        7.73       0.302
  WS02006116           JUNCTION      0.00   578.65     0  02:22           0        7.71       0.286
  WS02006230           JUNCTION     10.28   396.24     0  05:26        0.29        6.74       0.237
  WS02006231           JUNCTION      0.00   386.43     0  05:22           0        6.47       0.202
  WS02006232           JUNCTION      0.00   386.53     0  05:22           0        6.48       0.274
  WS02006234           JUNCTION      0.00   387.57     0  05:22           0        6.49       0.152
  WS02006235           JUNCTION      0.00   389.06     0  03:43           0        6.53       0.188
  WS02006238           JUNCTION      0.00   344.92     0  06:20           0        4.61       0.192
  WS02006240           JUNCTION      0.00   339.09     0  06:20           0        4.61       0.336
  WS02006242           JUNCTION      0.00   342.74     0  02:19           0        4.62       0.405
  WS02006243           JUNCTION      0.00   360.82     0  02:19           0        4.62       0.065
  WS02006245           JUNCTION      0.00   372.81     0  02:19           0        4.63       0.324
  WS02006247           JUNCTION      0.00   379.15     0  02:18           0        4.64       0.227
  WS02006248           JUNCTION      0.00   386.97     0  02:18           0        4.65       0.149
  WS02006249           JUNCTION      0.00   449.21     0  02:19           0        5.19       0.303
  WS02006239           JUNCTION      0.00   343.07     0  06:20           0         4.6       0.317
  WS02006251           JUNCTION      0.08   453.47     0  02:18     0.00217        5.23       0.271
  WS02006252           JUNCTION      0.00   400.00     0  02:17           0        5.02       0.010
  WS02006253           JUNCTION      1.72    56.08     0  02:16     0.00416       0.213       3.994
  WS02006256           JUNCTION      0.00   600.00     0  00:00           0        5.19       0.045
  WS02004138           JUNCTION      0.00   380.00     0  04:20           0        6.56       0.077
  WS02004407           JUNCTION      0.00   567.51     0  02:27           0        7.56       0.111
  WS02006228           JUNCTION      0.00   583.45     0  02:21           0        7.78       0.213
  WS02006229           JUNCTION      0.00   590.34     0  02:21           0        7.79       0.168
  WS02006280           JUNCTION      0.00   261.71     0  02:17           0        1.06       0.006
  WS02006284           JUNCTION      0.10   261.70     0  02:16      0.0027        1.06       0.103
  WS02006287           JUNCTION      0.00   261.58     0  02:16           0        1.06       0.068
  WSF200               JUNCTION      0.00   559.97     0  02:31           0        7.43       0.059
  HS02004901           JUNCTION     14.12    14.12     0  02:09      0.0387      0.0388       4.739
  HS02004881           JUNCTION      5.74    50.70     0  02:16      0.0169       0.179       0.181
  HS02004876           JUNCTION      9.27    45.23     0  02:16      0.0324       0.163       0.328
  HS02004870           JUNCTION     10.18    36.13     0  02:16       0.032        0.13       0.082
  HS02004862           JUNCTION      8.45    26.57     0  02:17      0.0376      0.0985       0.173
  HS02004856           JUNCTION      7.56    18.17     0  02:16      0.0241      0.0623       2.359
  HS02004852           JUNCTION      0.00    11.06     0  02:17           0      0.0383       0.136
  HS02004848           JUNCTION     17.12    17.12     0  02:20      0.0765      0.0765       0.058
  HS02004842           JUNCTION      0.00     6.65     0  02:29           0      0.0512      34.055
  HS02004837           JUNCTION     22.77    28.31     0  02:16       0.235       0.273       0.299
  HS02004830           JUNCTION      0.15    28.44     0  02:17     0.00423       0.263       0.470
  HS02004824           JUNCTION     19.41    47.61     0  02:20         0.1       0.362       0.149
  HS02004817           JUNCTION      0.60    48.20     0  02:20      0.0169       0.378       4.606
  HS02004807           JUNCTION     19.13    65.71     0  02:18      0.0588       0.421       1.015
  HS02004802           JUNCTION      0.00    66.13     0  02:19           0       0.416       0.983
  HS02004799           JUNCTION     14.78   167.10     0  02:14      0.0476       0.565       0.406
  HS02004792           JUNCTION     65.67   152.53     0  02:13       0.206       0.518       0.079
  HS02004788           JUNCTION     21.74    88.72     0  02:14       0.113       0.313       0.124
  HS02004785           JUNCTION      0.15    67.26     0  02:14     0.00423       0.201       0.241
  HS02004777           JUNCTION      0.03    67.54     0  02:12    0.000846       0.202       2.635
  HS02004770           JUNCTION     55.59    68.62     0  02:11       0.165       0.203       1.553
  HS02004480           JUNCTION      0.00   197.18     0  02:15           0       0.661       0.114
  HS02004479           JUNCTION      0.00    30.69     0  02:16           0       0.109       0.674
  HS02004478           JUNCTION      0.00   261.56     0  02:16           0        1.06       0.057
  YS02001745           JUNCTION    103.27   191.36     0  03:59        1.07        1.15       0.175
  YS02001748           JUNCTION      0.04   336.71     0  03:31     0.00127        1.21       0.868
  YS02001751           JUNCTION      0.01   369.55     0  03:46     0.00031        1.12       1.525
  YS02001754           JUNCTION      0.26   176.32     0  03:23     0.00733        1.05       2.144
  YS02001762           JUNCTION      0.00   149.97     0  02:43           0        1.16       1.810
  YS02001765           JUNCTION      0.00   148.76     0  02:43           0        1.17       2.083
  YS02001767           JUNCTION      0.54   150.84     0  02:32      0.0151        1.18       3.039
  YS02001770           JUNCTION    131.47   163.00     0  02:37        1.23        1.27       2.489
  YS02001774           JUNCTION      0.00    48.68     0  02:14           0       0.107      30.265
  YS02001779           JUNCTION      0.01    43.01     0  02:36    0.000141      0.0474      40.823
  YS02001882           JUNCTION      0.00     4.88     0  02:07           0     0.00649      38.227
  YS02001884           JUNCTION      0.00    13.66     0  02:10           0      0.0257      24.914
  YS02001759           JUNCTION    128.10   278.06     0  02:46        1.15        2.28       1.008
  YS02001887           JUNCTION    167.24   167.54     0  02:41        1.36        1.37       0.545
  YS02001890           JUNCTION      0.00   166.47     0  02:41           0        1.34       0.609
  YS02001898           JUNCTION      0.00   165.89     0  02:53           0        1.33       0.182
  YS02001901           JUNCTION      0.00   166.55     0  02:53           0        1.33       0.437
  YS02001904           JUNCTION      0.00   169.58     0  02:54           0        1.33       0.406
  YS02001907           JUNCTION      0.00   314.28     0  02:54           0        2.86       0.791
  YS02001910           JUNCTION      0.00   141.56     0  03:00           0        1.55       0.683
  YS02001915           JUNCTION     92.05   140.23     0  03:00       0.908        1.55       0.315
  YS02001918           JUNCTION      0.00    47.41     0  03:04           0       0.645       0.201
  YS02001619           JUNCTION     89.65    89.65     0  02:59       0.897       0.897       0.994
  YS02001629           JUNCTION      0.00   166.56     0  03:34           0       0.844       2.836
  YS02001641           JUNCTION      0.00   196.48     0  02:52           0        1.79       1.183
  YS02001644           JUNCTION     98.19   294.04     0  02:52        1.02        2.78       0.943
  YS02001652           JUNCTION      0.00   178.29     0  02:49           0       0.972       2.156
  YS02001655           JUNCTION      0.15   358.64     0  03:34     0.00434        1.04       1.882
  YS02001920           JUNCTION      2.87    47.04     0  03:01      0.0809       0.647       0.346
  YS02001923           JUNCTION      0.04    44.17     0  03:01     0.00106       0.566       0.062
  YS02001926           JUNCTION      0.05    44.22     0  03:01     0.00147       0.568       0.431
  YS02001929           JUNCTION     44.19    44.19     0  03:01       0.567       0.567       0.060
  YS02001658           JUNCTION      0.00   373.71     0  03:36           0        1.15       0.979
  YS02001661           JUNCTION      0.00   224.12     0  03:38           0        1.13       0.303
  YS02001664           JUNCTION    118.97   118.97     0  02:45       0.998        1.03       0.029
  YS02001622           JUNCTION      0.00   118.70     0  03:36           0       0.904       2.800
  YS02001633           JUNCTION     99.86   197.50     0  03:08        1.05        1.84       1.745
  YS02001649           JUNCTION      0.00   437.66     0  03:06           0        3.66       1.012
  YS02001757           JUNCTION      0.00   758.00     0  02:56           0        6.87       1.360
  YS02001895           JUNCTION      0.00   166.39     0  02:42           0        1.33       0.298
  YS02001625           JUNCTION      0.00   167.33     0  03:34           0       0.895       4.495
  YS02163301           JUNCTION      0.00   104.14     0  03:08           0       0.818       2.974
  YS02163601           JUNCTION      0.11   196.42     0  03:08      0.0031        1.81       1.683
  YS02164001           JUNCTION      0.00   196.52     0  03:08           0        1.79       1.107
  YS02001647           JUNCTION      0.00   292.63     0  02:52           0        2.74       0.902
  YSB1154              JUNCTION     16.48    16.48     0  02:14      0.0577       0.059       2.509
  YSB6556              JUNCTION      0.00    16.51     0  02:15           0      0.0599       2.126
  YSB1174              JUNCTION     15.99    15.99     0  02:08       0.042      0.0429       3.084
  YSB1171              JUNCTION      0.00    30.61     0  02:14           0       0.108       6.195
  YS02006553           JUNCTION      0.00   313.85     0  02:54           0        2.85       0.512
  YS02006561           JUNCTION      0.00   475.56     0  02:55           0        4.04       0.010
  YS02006556           JUNCTION      0.00   308.86     0  02:53           0        2.86       0.371
  YS02006558           JUNCTION    142.05   452.80     0  02:55        1.24        4.07       0.122
  YS02001783           JUNCTION      0.00   448.87     0  02:53           0        4.04       0.042
  YS02001784           JUNCTION      1.06   448.17     0  02:55      0.0299        4.07       0.068
  YS02001786           JUNCTION      0.06   448.46     0  02:55     0.00159        4.06       0.066
  YS02001788           JUNCTION      0.07   450.25     0  02:55       0.002        4.06       0.039
  YS02001790           JUNCTION      0.15   464.96     0  02:54     0.00437        4.07       0.043
  YS02001791           JUNCTION      0.00   514.81     0  02:55           0        4.07       0.016
  YS02001793           JUNCTION      0.00   595.31     0  02:52           0        4.07      -0.052
  WS02004139           JUNCTION      0.32   380.32     0  04:22     0.00905        6.56       0.592
  WSC                  OUTFALL       0.00   913.42     0  02:35           0        14.4       0.000
  3                    OUTFALL       0.00   597.65     0  00:00           0        3.24       0.000
  4                    OUTFALL       0.00   147.55     0  02:22           0       0.524       0.000
  5                    OUTFALL       0.00     0.00     0  00:00           0           0       0.000 ltr
  JK-storage           STORAGE       0.00   781.41     0  02:51           0        4.22     -19.347
  CC-storage           STORAGE       0.00   758.06     0  02:53           0        6.77      -0.203
  XR-storage           STORAGE     366.60   366.60     0  02:56        7.43        8.03      -0.003
  
  
  **********************
  Node Surcharge Summary
  **********************
  
  Surcharging occurs when water rises above the top of the highest conduit.
  ---------------------------------------------------------------------
                                               Max. Height   Min. Depth
                                   Hours       Above Crown    Below Rim
  Node                 Type      Surcharged         Meters       Meters
  ---------------------------------------------------------------------
  WS02006109           JUNCTION        2.61          0.206        1.614
  WS02006110           JUNCTION        0.17          0.046        1.804
  WS02006112           JUNCTION        0.23          0.085        1.595
  WS02006230           JUNCTION        0.01          0.013        1.557
  WS02006231           JUNCTION        0.08          0.084        1.446
  WS02006232           JUNCTION        2.67          0.242        1.238
  WS02006234           JUNCTION        0.13          0.180        1.060
  WS02006235           JUNCTION        1.34          0.198        1.092
  WS02006238           JUNCTION        1.89          0.209        1.221
  WS02006240           JUNCTION        0.09          0.231        1.159
  WS02006242           JUNCTION        1.47          0.395        0.425
  WS02006243           JUNCTION        0.01          0.003        0.767
  WS02006247           JUNCTION        0.01          0.760        0.000
  WS02006239           JUNCTION        0.17          0.318        0.972
  WS02006252           JUNCTION        2.70          0.193        0.907
  WS02006256           JUNCTION        0.01          1.050        0.000
  WS02006228           JUNCTION        2.48          0.257        1.943
  YS02001748           JUNCTION        0.01          0.035        1.155
  YS02001751           JUNCTION        2.31          0.975        0.225
  YS02001754           JUNCTION        4.49          0.894        0.256
  YS02001762           JUNCTION        5.35          0.799        0.351
  YS02001765           JUNCTION        5.32          0.758        0.342
  YS02001767           JUNCTION        5.28          0.741        0.289
  YS02001770           JUNCTION        5.23          0.744        0.176
  YS02001774           JUNCTION        5.34          0.876        0.174
  YS02001779           JUNCTION        4.18          0.635        0.045
  YS02001759           JUNCTION        5.38          0.832        0.378
  YS02001619           JUNCTION        2.01          0.485        0.125
  YS02001629           JUNCTION        2.03          0.465        0.005
  YS02001641           JUNCTION        5.33          0.881        0.219
  YS02001644           JUNCTION        5.33          0.857        0.063
  YS02001652           JUNCTION        4.84          0.913        0.217
  YS02001655           JUNCTION        2.67          0.990        0.210
  YS02001658           JUNCTION        0.04          0.247        1.053
  YS02001622           JUNCTION        2.17          0.503        0.117
  YS02001633           JUNCTION        5.30          0.905        0.155
  YS02001649           JUNCTION        5.36          0.836        0.214
  YS02001757           JUNCTION        5.46          0.934        0.276
  YS02001625           JUNCTION        5.08          0.780        0.000
  YS02163301           JUNCTION        5.26          0.874        0.156
  YS02163601           JUNCTION        5.36          0.959        0.121
  YS02164001           JUNCTION        5.32          0.877        0.223
  YS02001647           JUNCTION        5.00          0.643        0.257
  YS02001790           JUNCTION        0.36          0.611        0.546
  YS02001791           JUNCTION        0.46          1.382        0.538
  YS02001793           JUNCTION        0.68          1.631        0.969
  
  
  *********************
  Node Flooding Summary
  *********************
  
  Flooding refers to all water that overflows a node, whether it ponds or not.
  --------------------------------------------------------------------------
                                                             Total   Maximum
                                 Maximum   Time of Max       Flood    Ponded
                        Hours       Rate    Occurrence      Volume     Depth
  Node                 Flooded       LPS   days hr:min    10^6 ltr    Meters
  --------------------------------------------------------------------------
  WS02006247              0.01     70.04      0  02:21       0.000     0.000
  WS02006256              0.01    406.11      0  00:00       0.001     0.000
  YS02001625              0.01      4.26      0  05:09       0.000     0.000
  JK-storage              0.13    185.91      0  03:35       0.039     0.000
  XR-storage              1.92    244.70      0  03:20       0.591     0.000
  
  
  **********************
  Storage Volume Summary
  **********************
  
  --------------------------------------------------------------------------------------------------
                         Average     Avg  Evap Exfil       Maximum     Max    Time of Max    Maximum
                          Volume    Pcnt  Pcnt  Pcnt        Volume    Pcnt     Occurrence    Outflow
  Storage Unit           1000 m3    Full  Loss  Loss       1000 m3    Full    days hr:min        LPS
  --------------------------------------------------------------------------------------------------
  JK-storage               0.069      24     0     0         0.291     100       0  03:33     600.00
  CC-storage               1.936      12     0     0         3.099      20       0  05:13     400.00
  XR-storage               0.855      92     0     0         0.926     100       0  02:52     380.00
  
  
  ***********************
  Outfall Loading Summary
  ***********************
  
  -----------------------------------------------------------
                         Flow       Avg       Max       Total
                         Freq      Flow      Flow      Volume
  Outfall Node           Pcnt       LPS       LPS    10^6 ltr
  -----------------------------------------------------------
  WSC                   99.99    598.36    913.42      14.420
  3                     89.24    180.54    597.65       3.236
  4                     41.25     55.08    147.55       0.524
  5                      0.00      0.00      0.00       0.000
  -----------------------------------------------------------
  System                57.62    833.99   1253.05      18.180
  
  
  ********************
  Link Flow Summary
  ********************
  
  -----------------------------------------------------------------------------
                                 Maximum  Time of Max   Maximum    Max/    Max/
                                  |Flow|   Occurrence   |Veloc|    Full    Full
  Link                 Type          LPS  days hr:min     m/sec    Flow   Depth
  -----------------------------------------------------------------------------
  WS02003066WSF200     CONDUIT    559.97     0  02:31      2.75    0.09    0.24
  WS02006287WS02006284 CONDUIT    261.60     0  02:16      1.76    0.12    0.24
  WS02006284WS02006280 CONDUIT    261.71     0  02:17      2.00    0.11    0.22
  WS02006280WS02006229 CONDUIT    261.71     0  02:17      3.22    0.06    0.16
  WS02006229WS02006228 CONDUIT    583.45     0  02:21      1.16    1.93    1.00
  WS02006256WS02006235 CONDUIT    177.52     0  00:01      2.73    1.88    1.00
  WS02006253WS02006251 CONDUIT     65.50     0  02:23      0.53    0.20    0.92
  WS02006252WS02006251 CONDUIT    400.42     0  07:40      3.19    1.47    1.00
  WS02006251WS02006249 CONDUIT    449.21     0  02:19      1.27    1.30    0.87
  WS02006249WS02006248 CONDUIT    386.97     0  02:18      1.27    2.12    0.88
  WS02006248WS02006247 CONDUIT    379.15     0  02:18      1.23    0.83    0.94
  WS02006247WS02006245 CONDUIT    372.81     0  02:19      1.20    2.96    0.96
  WS02006245WS02006243 CONDUIT    360.82     0  02:19      1.24    1.07    0.97
  WS02006243WS02006242 CONDUIT    342.74     0  02:19      1.05    0.73    1.00
  WS02006242WS02006240 CONDUIT    339.09     0  06:20      0.91    1.35    1.00
  WS02006240WS02006239 CONDUIT    343.07     0  06:20      0.93    1.08    1.00
  WS02006239WS02006238 CONDUIT    344.92     0  06:20      0.91    1.10    1.00
  WS02006238WS02006235 CONDUIT    344.71     0  06:20      1.32    0.77    1.00
  WS02006235WS02006234 CONDUIT    387.57     0  05:22      1.03    4.09    1.00
  WS02006234WS02006232 CONDUIT    386.53     0  05:22      1.17    0.78    1.00
  WS02006232WS02006231 CONDUIT    386.43     0  05:22      1.05    0.81    1.00
  WS02006231WS02006230 CONDUIT    385.96     0  05:26      1.34    5.85    1.00
  WS02006230WS02006229 CONDUIT    396.26     0  05:27      1.03    8.82    1.00
  WS02006228WS02006109 CONDUIT    583.51     0  02:21      1.16    2.55    1.00
  WS02006116WS02004401 CONDUIT    569.94     0  02:25      0.83    0.79    0.87
  WS02006115WS02006116 CONDUIT    578.65     0  02:22      0.94    0.74    0.79
  WS02006113WS02006111 CONDUIT    608.76     0  02:22      2.54    0.73    0.48
  WS02006112WS02006115 CONDUIT    599.04     0  02:23      0.83    0.35    0.88
  WS02006111WS02006112 CONDUIT    590.34     0  02:22      1.62    0.28    0.68
  WS02006110WS02006113 CONDUIT    588.49     0  02:22      1.37    0.54    0.80
  WS02006109WS02006110 CONDUIT    584.80     0  02:21      1.16    1.12    1.00
  WS02004411WS02004412 CONDUIT    560.18     0  02:30      0.94    0.80    0.71
  WS02004401WS02004402 CONDUIT    568.73     0  02:27      0.78    0.68    0.89
  WS02004413WS02003067 CONDUIT    559.70     0  02:31      1.14    0.24    0.60
  WS02004412WS02004413 CONDUIT    559.89     0  02:30      0.84    0.37    0.79
  WS02004410WS02004411 CONDUIT    561.04     0  02:30      0.97    0.77    0.70
  WS02004409WS02004410 CONDUIT    563.04     0  02:28      1.01    0.73    0.69
  WS02004407WS02004409 CONDUIT    567.22     0  02:28      1.54    0.20    0.49
  WS02004406WS02004407 CONDUIT    567.51     0  02:27      1.07    0.25    0.64
  WS02004405WS02004406 CONDUIT    568.00     0  02:27      0.73    1.12    0.97
  WS02004404WS02004405 CONDUIT    567.86     0  02:27      0.73    5.56    0.98
  WS02004403WS02004404 CONDUIT    567.53     0  02:27      0.74    0.41    0.95
  WS02004402WS02004403 CONDUIT    567.67     0  02:27      0.76    0.82    0.91
  WS02004139WS02001211 CONDUIT    380.77     0  04:30      0.80    0.48    0.58
  WS02004138WS02004139 CONDUIT    380.00     0  04:22      3.34    0.08    0.43
  WS02003067WS02003066 CONDUIT    559.85     0  02:31      1.23    0.18    0.42
  WS02001213WS02003059 CONDUIT    390.83     0  04:31      0.80    0.64    0.75
  WS02001212WS02001213 CONDUIT    389.43     0  04:30      1.20    0.60    0.45
  WS02001211WS02001212 CONDUIT    388.70     0  04:30      0.75    0.30    0.63
  WS02003072WS02003073 CONDUIT    911.63     0  02:34      1.71    1.97    0.48
  WS02003069WS02003072 CONDUIT    911.70     0  02:33      1.61    0.44    0.50
  WS02003060WS02003069 CONDUIT    912.12     0  02:33      1.85    0.36    0.45
  WS02003059WS02003060 CONDUIT    392.80     0  04:31      0.82    0.26    0.65
  HS02004901HS02004770 CONDUIT     13.25     0  02:12      0.05    0.05    0.35
  HS02004876HS02004881 CONDUIT     45.39     0  02:16      0.68    0.48    0.10
  HS02004870HS02004876 CONDUIT     36.11     0  02:17      0.47    0.02    0.11
  HS02004842HS02004848 CONDUIT      6.65     0  02:29      0.03    0.00    0.28
  HS02004837HS02004842 CONDUIT      6.88     0  02:30      0.41    0.00    0.30
  HS02004830HS02004837 CONDUIT     28.29     0  02:17      0.48    0.03    0.08
  HS02004824HS02004830 CONDUIT     28.44     0  02:17      0.51    0.04    0.08
  HS02004817HS02004824 CONDUIT     47.60     0  02:20      0.17    0.02    0.42
  HS02004770HS02004777 CONDUIT     67.51     0  02:12      0.27    0.12    0.36
  HS02004799HS02004480 CONDUIT    166.86     0  02:14      0.67    0.21    0.35
  HS02004792HS02004799 CONDUIT    152.46     0  02:14      0.77    0.09    0.28
  HS02004788HS02004792 CONDUIT     88.66     0  02:15      0.91    0.06    0.14
  HS02004785HS02004788 CONDUIT     67.17     0  02:14      0.58    0.51    0.17
  HS02004777HS02004785 CONDUIT     67.11     0  02:14      0.32    0.08    0.30
  HS02004480HS02004478 CONDUIT    197.13     0  02:15      1.06    0.83    0.26
  HS02004479HS02004480 CONDUIT     30.93     0  02:16      0.16    0.03    0.34
  HS02004862HS02004870 CONDUIT     26.53     0  02:18      0.52    0.03    0.07
  HS02004848HS02004852 CONDUIT     11.06     0  02:17      0.35    0.01    0.05
  HS02004856HS02004862 CONDUIT     18.14     0  02:17      0.38    0.02    0.07
  HS02004852HS02004856 CONDUIT     11.02     0  02:18      0.16    0.01    0.10
  HS02004802HS02004478 CONDUIT     66.64     0  02:20      0.34    0.06    0.29
  HS02004478WS02006287 CONDUIT    261.58     0  02:16      1.45    0.07    0.20
  HS02004817HS02004807 CONDUIT     48.93     0  02:22      0.13    0.03    0.55
  HS02004807HS02004802 CONDUIT     66.13     0  02:19      0.29    0.13    0.33
  YS02001759YS02001757 CONDUIT    278.44     0  02:46      0.35    0.20    1.00
  YS02001762YS02001759 CONDUIT    150.18     0  02:43      0.19    0.17    1.00
  YS02001765YS02001762 CONDUIT    149.97     0  02:43      0.23    0.14    1.00
  YS02001770YS02001767 CONDUIT    150.30     0  02:32      0.30    0.60    1.00
  YS02001774YS02001770 CONDUIT     48.68     0  02:14      0.14    0.03    1.00
  YS02001779YS02001774 CONDUIT     43.01     0  02:36      0.07    0.02    1.00
  YS02001649YS02001757 CONDUIT    437.73     0  03:06      0.56    0.27    1.00
  YS02001767YS02001765 CONDUIT    148.76     0  02:43      0.26    0.19    1.00
  YS02006561YS02001783 CONDUIT    448.87     0  02:53      1.96    0.23    0.52
  YS02001783YS02001784 CONDUIT    447.11     0  02:55      1.39    0.62    0.79
  YS02001784YS02001785 CONDUIT    448.41     0  02:55      1.50    1.04    0.85
  YS02001788YS02001790 CONDUIT    464.80     0  02:54      2.04    0.34    0.95
  YS02001790YS02001791 CONDUIT    514.81     0  02:55      2.42    0.56    1.00
  YS02001791YS02001793 CONDUIT    595.31     0  02:52      4.87    0.26    1.00
  YS02001910YS02001907 CONDUIT    142.00     0  02:53      0.49    0.08    0.83
  YS02001786YS02001788 CONDUIT    450.18     0  02:55      1.98    0.87    0.86
  YS02001915YS02001910 CONDUIT    141.56     0  03:00      0.45    0.07    0.62
  YS02001918YS02001915 CONDUIT     49.55     0  03:04      0.44    0.03    0.34
  YS02001923YS02001920 CONDUIT     44.17     0  03:01      0.51    0.02    0.17
  YS02001926YS02001923 CONDUIT     44.13     0  03:01      0.56    0.06    0.16
  YS02001929YS02001926 CONDUIT     44.17     0  03:01      0.60    0.02    0.15
  YS02001920YS02001918 CONDUIT     47.41     0  03:04      0.52    0.05    0.20
  YS02001629YS02163301 CONDUIT    104.14     0  03:08      0.13    0.13    1.00
  YS02001619YS02001622 CONDUIT    118.70     0  03:36      0.70    0.17    1.00
  YS02001622YS02001625 CONDUIT    167.33     0  03:34      0.29    0.09    1.00
  YS02001625YS02001629 CONDUIT    166.56     0  03:34      0.28    0.08    1.00
  YS02163301YS02001633 CONDUIT    103.59     0  03:08      0.13    0.10    1.00
  YS02163601YS02164001 CONDUIT    196.52     0  03:08      0.25    0.17    1.00
  YS02164001YS02001641 CONDUIT    196.48     0  02:52      0.25    0.27    1.00
  YS02001641YS02001644 CONDUIT    196.74     0  02:52      0.25    0.64    1.00
  YS02001647YS02001649 CONDUIT    324.96     0  02:46      0.41    0.17    1.00
  YS02006553YS02006556 CONDUIT    308.86     0  02:53      0.41    0.26    0.91
  YS02006556YS02006558 CONDUIT    312.34     0  02:55      0.41    0.25    0.93
  YSB6556YSB1171       CONDUIT     16.81     0  02:18      0.07    0.02    0.61
  YS02001907YS02006553 CONDUIT    313.85     0  02:54      0.35    0.37    1.00
  YS02006558YS02006561 CONDUIT    475.56     0  02:55      2.69    1.05    0.60
  YS02001633YS02163601 CONDUIT    196.31     0  03:08      0.25    0.21    1.00
  YS02001644YS02001647 CONDUIT    292.63     0  02:52      0.37    0.17    1.00
  YS02001745YS02001748 CONDUIT    226.55     0  03:59      1.50    0.09    0.79
  YS02001748YS02001751 CONDUIT    369.54     0  03:46      1.16    0.19    1.00
  YS02001751YS02001754 CONDUIT    176.06     0  03:23      1.00    0.08    1.00
  YS02001754YS02001757 CONDUIT    172.56     0  03:33      0.33    0.07    1.00
  YS02001882YS02001884 CONDUIT      4.88     0  02:07      0.06    0.01    0.55
  YS02001884YS02001887 CONDUIT     13.66     0  02:10      0.06    0.02    0.65
  YS02001890YS02001895 CONDUIT    166.39     0  02:42      0.33    0.08    0.62
  YS02001895YS02001898 CONDUIT    165.89     0  02:53      0.49    0.29    0.48
  YS02001898YS02001901 CONDUIT    166.55     0  02:53      0.37    0.11    0.56
  YS02001901YS02001904 CONDUIT    169.58     0  02:54      0.34    0.26    0.61
  YS02001904YS02001907 CONDUIT    173.12     0  02:54      0.27    0.06    0.77
  YS02001887YS02001890 CONDUIT    166.47     0  02:41      0.29    0.28    0.70
  YS02001652YS02001649 CONDUIT    179.58     0  03:09      0.33    0.09    1.00
  YS02001655YS02001652 CONDUIT    178.29     0  02:49      1.07    0.09    1.00
  YS02001658YS02001655 CONDUIT    346.17     0  03:34      1.34    0.15    1.00
  YS02001661YS02001658 CONDUIT    284.87     0  03:37      1.56    0.11    0.83
  YS02001664YS02001661 CONDUIT    134.01     0  05:25      1.29    0.04    0.48
  YSB1154YSB6556       CONDUIT     16.51     0  02:15      0.19    0.03    0.50
  YSB1174YSB1171       CONDUIT     14.89     0  02:09      0.06    0.02    0.62
  YSB1171HS02004479    CONDUIT     30.69     0  02:16      0.54    0.02    0.48
  HS02004881HS02006253 CONDUIT     50.69     0  02:16      1.84    0.01    0.25
  YS02001793JiankangQianchi CONDUIT    781.41     0  02:51     13.02    0.06    1.00
  YS02001757CaochengTiaoxuchi CONDUIT    758.06     0  02:53      1.55    0.33    1.00
  WSF200WS02003060     CONDUIT    561.33     0  02:31      1.78    0.12    0.34
  1                    CONDUIT    913.42     0  02:35      3.25    0.32    0.39
  2                    CONDUIT    147.55     0  02:22      5.40    0.35    0.41
  3                    CONDUIT    597.65     0  00:00     10.05    0.95    0.86
  4                    CONDUIT      0.00     0  00:00      0.00    0.00    0.00
  CC-Pump-1            PUMP       200.00     0  02:17              1.00
  CC-Pump-2            PUMP       200.00     0  02:17              1.00
  JK-Pump-1            PUMP       300.00     0  00:00              1.00
  JK-Pump-2            PUMP       300.00     0  00:00              1.00
  XR-Pump-1            PUMP        95.00     0  00:20              1.00
  XR-Pump-2            PUMP        95.00     0  00:00              1.00
  XR-Pump-3            PUMP        95.00     0  00:00              1.00
  XR-Pump-4            PUMP        95.00     0  00:00              1.00
  
  
  ***************************
  Flow Classification Summary
  ***************************
  
  -------------------------------------------------------------------------------------
                      Adjusted    ---------- Fraction of Time in Flow Class ---------- 
                       /Actual         Up    Down  Sub   Sup   Up    Down  Norm  Inlet 
  Conduit               Length    Dry  Dry   Dry   Crit  Crit  Crit  Crit  Ltd   Ctrl  
  -------------------------------------------------------------------------------------
  WS02003066WSF200        1.00   0.07  0.00  0.00  0.00  0.93  0.00  0.00  0.67  0.00
  WS02006287WS02006284    1.00   0.03  0.01  0.00  0.67  0.28  0.00  0.00  0.76  0.00
  WS02006284WS02006280    1.00   0.04  0.00  0.00  0.00  0.00  0.00  0.96  0.00  0.00
  WS02006280WS02006229    1.00   0.04  0.00  0.00  0.00  0.00  0.00  0.96  0.00  0.00
  WS02006229WS02006228    1.00   0.00  0.00  0.00  0.98  0.00  0.00  0.02  0.00  0.00
  WS02006256WS02006235    1.00   0.00  0.00  0.00  1.00  0.00  0.00  0.00  0.00  0.00
  WS02006253WS02006251    1.00   0.02  0.01  0.00  0.96  0.00  0.00  0.00  0.00  0.00
  WS02006252WS02006251    1.00   0.08  0.00  0.00  0.00  0.00  0.92  0.00  0.00  0.00
  WS02006251WS02006249    1.00   0.00  0.00  0.00  1.00  0.00  0.00  0.00  0.27  0.00
  WS02006249WS02006248    1.00   0.00  0.02  0.00  0.89  0.00  0.10  0.00  0.00  0.00
  WS02006248WS02006247    1.00   0.02  0.00  0.00  0.97  0.00  0.00  0.01  0.18  0.00
  WS02006247WS02006245    1.00   0.02  0.00  0.00  0.96  0.00  0.00  0.02  0.00  0.00
  WS02006245WS02006243    1.00   0.02  0.00  0.00  0.94  0.00  0.00  0.05  0.02  0.00
  WS02006243WS02006242    1.00   0.01  0.00  0.00  0.99  0.00  0.00  0.00  0.26  0.00
  WS02006242WS02006240    1.00   0.01  0.00  0.00  0.99  0.00  0.00  0.00  0.00  0.00
  WS02006240WS02006239    1.00   0.00  0.00  0.00  0.95  0.00  0.00  0.04  0.02  0.00
  WS02006239WS02006238    1.00   0.00  0.00  0.00  1.00  0.00  0.00  0.00  0.02  0.00
  WS02006238WS02006235    1.00   0.00  0.00  0.00  1.00  0.00  0.00  0.00  0.00  0.00
  WS02006235WS02006234    1.00   0.00  0.00  0.00  0.95  0.00  0.05  0.00  0.00  0.00
  WS02006234WS02006232    1.00   0.00  0.00  0.00  1.00  0.00  0.00  0.00  0.08  0.00
  WS02006232WS02006231    1.00   0.00  0.00  0.00  0.99  0.00  0.01  0.00  0.00  0.00
  WS02006231WS02006230    1.00   0.00  0.00  0.00  0.71  0.00  0.28  0.00  0.00  0.00
  WS02006230WS02006229    1.00   0.00  0.00  0.00  0.98  0.00  0.00  0.02  0.01  0.00
  WS02006228WS02006109    1.00   0.00  0.00  0.00  1.00  0.00  0.00  0.00  0.00  0.00
  WS02006116WS02004401    1.00   0.02  0.00  0.00  0.98  0.00  0.00  0.00  0.00  0.00
  WS02006115WS02006116    1.00   0.02  0.00  0.00  0.97  0.00  0.00  0.01  0.01  0.00
  WS02006113WS02006111    1.00   0.02  0.00  0.00  0.00  0.98  0.00  0.00  0.10  0.00
  WS02006112WS02006115    1.00   0.02  0.00  0.00  0.98  0.00  0.00  0.00  0.00  0.00
  WS02006111WS02006112    1.00   0.02  0.00  0.00  0.98  0.00  0.00  0.00  0.98  0.00
  WS02006110WS02006113    1.00   0.02  0.00  0.00  0.98  0.00  0.00  0.00  0.00  0.00
  WS02006109WS02006110    1.00   0.00  0.01  0.00  0.98  0.00  0.00  0.00  0.00  0.00
  WS02004411WS02004412    1.00   0.05  0.00  0.00  0.95  0.00  0.00  0.00  0.00  0.00
  WS02004401WS02004402    1.00   0.02  0.00  0.00  0.98  0.00  0.00  0.00  0.00  0.00
  WS02004413WS02003067    1.00   0.05  0.01  0.00  0.00  0.00  0.94  0.00  0.00  0.00
  WS02004412WS02004413    1.00   0.05  0.00  0.00  0.95  0.00  0.00  0.00  0.03  0.00
  WS02004410WS02004411    1.00   0.05  0.00  0.00  0.95  0.00  0.00  0.00  0.01  0.00
  WS02004409WS02004410    1.00   0.05  0.00  0.00  0.95  0.00  0.00  0.00  0.00  0.00
  WS02004407WS02004409    1.00   0.05  0.00  0.00  0.95  0.00  0.00  0.00  0.80  0.00
  WS02004406WS02004407    1.00   0.00  0.05  0.00  0.95  0.00  0.00  0.00  0.00  0.00
  WS02004405WS02004406    1.00   0.00  0.00  0.00  1.00  0.00  0.00  0.00  0.02  0.00
  WS02004404WS02004405    1.00   0.00  0.00  0.00  1.00  0.00  0.00  0.00  0.00  0.00
  WS02004403WS02004404    1.00   0.00  0.02  0.00  0.98  0.00  0.00  0.00  0.02  0.00
  WS02004402WS02004403    1.00   0.02  0.00  0.00  0.98  0.00  0.00  0.00  0.00  0.00
  WS02004139WS02001211    1.00   0.00  0.00  0.00  0.99  0.00  0.01  0.00  0.00  0.00
  WS02004138WS02004139    1.00   0.00  0.00  0.00  0.99  0.01  0.00  0.00  1.00  0.00
  WS02003067WS02003066    1.00   0.06  0.00  0.00  0.93  0.00  0.00  0.00  0.00  0.00
  WS02001213WS02003059    1.00   0.00  0.00  0.00  0.99  0.00  0.00  0.00  0.00  0.00
  WS02001212WS02001213    1.00   0.01  0.00  0.00  0.90  0.00  0.10  0.00  0.00  0.00
  WS02001211WS02001212    1.00   0.00  0.00  0.00  1.00  0.00  0.00  0.00  0.00  0.00
  WS02003072WS02003073    1.00   0.00  0.00  0.00  0.00  0.00  0.00  1.00  0.00  0.00
  WS02003069WS02003072    1.00   0.00  0.00  0.00  0.99  0.01  0.00  0.00  0.26  0.00
  WS02003060WS02003069    1.00   0.00  0.00  0.00  0.98  0.02  0.00  0.00  0.16  0.00
  WS02003059WS02003060    1.00   0.00  0.00  0.00  0.99  0.01  0.00  0.00  0.01  0.00
  HS02004901HS02004770    1.00   0.04  0.00  0.00  0.96  0.00  0.00  0.00  0.02  0.00
  HS02004876HS02004881    1.00   0.02  0.00  0.00  0.98  0.00  0.00  0.00  0.00  0.00
  HS02004870HS02004876    1.00   0.01  0.00  0.00  0.99  0.00  0.00  0.00  0.95  0.00
  HS02004842HS02004848    1.00   0.00  0.04  0.00  0.96  0.00  0.00  0.00  0.67  0.00
  HS02004837HS02004842    1.00   0.00  0.00  0.00  0.99  0.01  0.00  0.00  0.11  0.00
  HS02004830HS02004837    1.00   0.00  0.00  0.00  1.00  0.00  0.00  0.00  0.99  0.00
  HS02004824HS02004830    1.00   0.00  0.00  0.00  1.00  0.00  0.00  0.00  0.00  0.00
  HS02004817HS02004824    1.00   0.00  0.00  0.00  1.00  0.00  0.00  0.00  1.00  0.00
  HS02004770HS02004777    1.00   0.00  0.04  0.00  0.96  0.00  0.00  0.00  0.07  0.00
  HS02004799HS02004480    1.00   0.00  0.02  0.00  0.95  0.00  0.03  0.00  0.00  0.00
  HS02004792HS02004799    1.00   0.00  0.00  0.00  0.99  0.01  0.00  0.00  0.98  0.00
  HS02004788HS02004792    1.00   0.00  0.00  0.00  0.98  0.02  0.00  0.00  0.98  0.00
  HS02004785HS02004788    1.00   0.00  0.00  0.00  1.00  0.00  0.00  0.00  0.00  0.00
  HS02004777HS02004785    1.00   0.00  0.00  0.00  1.00  0.00  0.00  0.00  0.20  0.00
  HS02004480HS02004478    1.00   0.04  0.00  0.00  0.72  0.00  0.00  0.24  0.00  0.00
  HS02004479HS02004480    1.00   0.02  0.00  0.00  0.98  0.00  0.00  0.00  0.15  0.00
  HS02004862HS02004870    1.00   0.00  0.00  0.00  1.00  0.00  0.00  0.00  0.06  0.00
  HS02004848HS02004852    1.00   0.04  0.00  0.00  0.96  0.00  0.00  0.00  0.71  0.00
  HS02004856HS02004862    1.00   0.00  0.06  0.00  0.94  0.00  0.00  0.00  0.75  0.00
  HS02004852HS02004856    1.00   0.04  0.01  0.00  0.96  0.00  0.00  0.00  0.83  0.00
  HS02004802HS02004478    1.00   0.04  0.00  0.00  0.96  0.00  0.00  0.00  0.01  0.00
  HS02004478WS02006287    1.00   0.05  0.00  0.00  0.84  0.11  0.00  0.00  0.74  0.00
  HS02004817HS02004807    1.00   0.00  0.04  0.00  0.96  0.00  0.00  0.00  0.00  0.00
  HS02004807HS02004802    1.00   0.04  0.00  0.00  0.96  0.00  0.00  0.00  0.01  0.00
  YS02001759YS02001757    1.00   0.00  0.00  0.00  1.00  0.00  0.00  0.00  0.17  0.00
  YS02001762YS02001759    1.00   0.00  0.00  0.00  1.00  0.00  0.00  0.00  0.04  0.00
  YS02001765YS02001762    1.00   0.00  0.00  0.00  1.00  0.00  0.00  0.00  0.21  0.00
  YS02001770YS02001767    1.00   0.00  0.00  0.00  1.00  0.00  0.00  0.00  0.00  0.00
  YS02001774YS02001770    1.00   0.00  0.04  0.00  0.95  0.00  0.00  0.00  0.06  0.00
  YS02001779YS02001774    1.00   0.00  0.00  0.00  1.00  0.00  0.00  0.00  0.26  0.00
  YS02001649YS02001757    1.00   0.00  0.00  0.00  1.00  0.00  0.00  0.00  0.19  0.00
  YS02001767YS02001765    1.00   0.00  0.00  0.00  1.00  0.00  0.00  0.00  0.01  0.00
  YS02006561YS02001783    1.00   0.06  0.00  0.00  0.06  0.88  0.00  0.00  0.62  0.00
  YS02001783YS02001784    1.00   0.00  0.06  0.00  0.94  0.00  0.00  0.00  0.00  0.00
  YS02001784YS02001785    1.00   0.00  0.00  0.00  1.00  0.00  0.00  0.00  0.25  0.00
  YS02001788YS02001790    1.00   0.00  0.00  0.00  0.16  0.84  0.00  0.00  0.71  0.00
  YS02001790YS02001791    1.00   0.00  0.00  0.00  0.13  0.87  0.00  0.00  0.54  0.00
  YS02001791YS02001793    1.00   0.00  0.00  0.00  0.14  0.86  0.00  0.00  0.03  0.00
  YS02001910YS02001907    1.00   0.00  0.00  0.00  0.98  0.00  0.00  0.02  0.13  0.00
  YS02001786YS02001788    1.00   0.00  0.00  0.00  0.13  0.87  0.00  0.00  0.00  0.00
  YS02001915YS02001910    1.00   0.00  0.00  0.00  1.00  0.00  0.00  0.00  0.23  0.00
  YS02001918YS02001915    1.00   0.00  0.01  0.00  0.99  0.00  0.00  0.00  0.70  0.00
  YS02001923YS02001920    1.00   0.00  0.00  0.00  1.00  0.00  0.00  0.00  1.00  0.00
  YS02001926YS02001923    1.00   0.00  0.03  0.00  0.00  0.00  0.97  0.00  0.00  0.00
  YS02001929YS02001926    1.00   0.00  0.04  0.00  0.96  0.00  0.00  0.00  0.87  0.00
  YS02001920YS02001918    1.00   0.00  0.01  0.00  0.99  0.00  0.00  0.00  0.00  0.00
  YS02001629YS02163301    1.00   0.05  0.00  0.00  0.94  0.00  0.00  0.00  0.00  0.00
  YS02001619YS02001622    1.00   0.04  0.00  0.00  0.96  0.00  0.00  0.00  0.00  0.00
  YS02001622YS02001625    1.00   0.04  0.00  0.00  0.96  0.00  0.00  0.00  0.12  0.00
  YS02001625YS02001629    1.00   0.04  0.02  0.00  0.92  0.00  0.02  0.00  0.00  0.00
  YS02163301YS02001633    1.00   0.00  0.05  0.00  0.95  0.00  0.00  0.00  0.00  0.00
  YS02163601YS02164001    1.00   0.00  0.03  0.00  0.97  0.00  0.00  0.00  0.00  0.00
  YS02164001YS02001641    1.00   0.01  0.02  0.00  0.97  0.00  0.00  0.00  0.07  0.00
  YS02001641YS02001644    1.00   0.00  0.01  0.00  0.99  0.00  0.00  0.00  0.00  0.00
  YS02001647YS02001649    1.00   0.00  0.06  0.00  0.94  0.00  0.00  0.00  0.01  0.00
  YS02006553YS02006556    1.00   0.02  0.00  0.00  0.98  0.00  0.00  0.00  0.03  0.00
  YS02006556YS02006558    1.00   0.00  0.00  0.00  1.00  0.00  0.00  0.00  0.00  0.00
  YSB6556YSB1171          1.00   0.02  0.01  0.00  0.96  0.00  0.00  0.00  0.00  0.00
  YS02001907YS02006553    1.00   0.00  0.01  0.00  0.98  0.00  0.00  0.00  0.00  0.00
  YS02006558YS02006561    1.00   0.06  0.00  0.00  0.00  0.94  0.00  0.00  0.62  0.00
  YS02001633YS02163601    1.00   0.00  0.01  0.00  0.99  0.00  0.00  0.00  0.19  0.00
  YS02001644YS02001647    1.00   0.00  0.06  0.00  0.94  0.00  0.00  0.00  0.00  0.00
  YS02001745YS02001748    1.00   0.00  0.00  0.00  0.88  0.01  0.00  0.11  0.10  0.00
  YS02001748YS02001751    1.00   0.00  0.00  0.00  0.97  0.03  0.00  0.00  0.23  0.00
  YS02001751YS02001754    1.00   0.00  0.00  0.00  0.93  0.00  0.00  0.07  0.01  0.00
  YS02001754YS02001757    1.00   0.00  0.00  0.00  0.99  0.01  0.00  0.00  0.26  0.00
  YS02001882YS02001884    1.00   0.05  0.00  0.00  0.95  0.00  0.00  0.00  0.00  0.00
  YS02001884YS02001887    1.00   0.03  0.01  0.00  0.97  0.00  0.00  0.00  0.00  0.00
  YS02001890YS02001895    1.00   0.00  0.05  0.00  0.94  0.00  0.00  0.00  0.00  0.00
  YS02001895YS02001898    1.00   0.06  0.00  0.00  0.94  0.00  0.01  0.00  0.00  0.00
  YS02001898YS02001901    1.00   0.05  0.00  0.00  0.94  0.00  0.00  0.00  0.02  0.00
  YS02001901YS02001904    1.00   0.05  0.00  0.00  0.95  0.00  0.00  0.00  0.00  0.00
  YS02001904YS02001907    1.00   0.00  0.05  0.00  0.95  0.00  0.00  0.00  0.00  0.00
  YS02001887YS02001890    1.00   0.00  0.00  0.00  0.98  0.00  0.02  0.00  0.00  0.00
  YS02001652YS02001649    1.00   0.00  0.00  0.00  1.00  0.00  0.00  0.00  0.25  0.00
  YS02001655YS02001652    1.00   0.00  0.00  0.00  0.93  0.00  0.00  0.06  0.02  0.00
  YS02001658YS02001655    1.00   0.00  0.05  0.00  0.92  0.03  0.00  0.00  0.09  0.00
  YS02001661YS02001658    1.00   0.05  0.00  0.00  0.88  0.07  0.00  0.00  0.12  0.00
  YS02001664YS02001661    1.00   0.04  0.00  0.00  0.80  0.16  0.00  0.00  0.66  0.00
  YSB1154YSB6556          1.00   0.04  0.00  0.00  0.96  0.00  0.00  0.00  0.02  0.00
  YSB1174YSB1171          1.00   0.02  0.01  0.00  0.97  0.00  0.00  0.00  0.00  0.00
  YSB1171HS02004479       1.00   0.02  0.00  0.00  0.98  0.00  0.00  0.00  0.13  0.00
  HS02004881HS02006253    1.00   0.02  0.00  0.00  0.77  0.02  0.00  0.19  0.59  0.00
  YS02001793JiankangQianchi    1.00   0.00  0.00  0.00  0.37  0.63  0.00  0.00  0.21  0.00
  YS02001757CaochengTiaoxuchi    1.00   0.00  0.08  0.00  0.92  0.00  0.00  0.00  0.00  0.00
  WSF200WS02003060        1.00   0.00  0.07  0.00  0.58  0.35  0.00  0.00  0.17  0.00
  1                       1.00   0.00  0.00  0.00  0.00  1.00  0.00  0.00  0.31  0.00
  2                       1.00   0.58  0.00  0.00  0.00  0.41  0.00  0.00  0.09  0.00
  3                       1.00   0.11  0.00  0.00  0.00  0.89  0.00  0.00  0.04  0.00
  4                       1.00   1.00  0.00  0.00  0.00  0.00  0.00  0.00  0.00  0.00
  
  
  *************************
  Conduit Surcharge Summary
  *************************
  
  ----------------------------------------------------------------------------
                                                           Hours        Hours 
                         --------- Hours Full --------   Above Full   Capacity
  Conduit                Both Ends  Upstream  Dnstream   Normal Flow   Limited
  ----------------------------------------------------------------------------
  WS02006229WS02006228        2.48      2.84      2.48      4.58         2.48
  WS02006256WS02006235        5.70      5.70      7.26      2.64         0.01
  WS02006252WS02006251        1.74      1.74      2.70      2.45         0.01
  WS02006251WS02006249        0.01      0.01      0.01      1.72         0.01
  WS02006249WS02006248        0.01      0.01      0.01      4.31         0.01
  WS02006248WS02006247        0.01      0.01      0.01      0.01         0.01
  WS02006247WS02006245        0.01      0.01      0.01      4.71         0.01
  WS02006245WS02006243        0.01      0.01      0.01      0.05         0.01
  WS02006243WS02006242        0.01      0.01      1.47      0.01         0.01
  WS02006242WS02006240        0.09      0.09      1.98      2.65         0.01
  WS02006240WS02006239        0.10      0.10      0.17      0.03         0.01
  WS02006239WS02006238        1.75      1.76      1.89      0.23         0.19
  WS02006238WS02006235        1.62      1.62      2.27      0.01         0.01
  WS02006235WS02006234        0.13      0.13      1.34      5.72         0.01
  WS02006234WS02006232        0.16      0.16      2.67      0.01         0.01
  WS02006232WS02006231        0.08      0.08      2.67      0.01         0.01
  WS02006231WS02006230        0.01      0.01      0.10      5.68         0.01
  WS02006230WS02006229        3.83      4.39      3.83      5.75         3.83
  WS02006228WS02006109        2.61      3.37      2.61      5.20         2.61
  WS02006112WS02006115        0.01      0.01      0.23      0.01         0.01
  WS02006111WS02006112        0.01      0.01      4.64      0.01         0.01
  WS02006110WS02006113        0.01      0.01      3.11      0.01         0.01
  WS02006109WS02006110        0.17      0.17      3.37      0.18         0.01
  WS02004405WS02004406        0.01      0.01      0.01      0.20         0.01
  WS02004404WS02004405        0.01      0.01      0.01      5.66         0.01
  WS02003072WS02003073        0.01      0.01      0.01      5.41         0.01
  YS02001759YS02001757        5.38      5.38      5.46      0.01         0.01
  YS02001762YS02001759        5.35      5.35      5.38      0.01         0.01
  YS02001765YS02001762        5.32      5.32      5.35      0.01         0.01
  YS02001770YS02001767        5.26      5.27      5.28      0.01         0.77
  YS02001774YS02001770        5.23      5.23      5.34      0.01         0.01
  YS02001779YS02001774        4.18      4.18      5.34      0.01         0.01
  YS02001649YS02001757        5.36      5.36      5.46      0.01         0.01
  YS02001767YS02001765        5.28      5.28      5.32      0.01         0.01
  YS02001784YS02001785        0.01      0.01      0.01      0.43         0.01
  YS02001788YS02001790        0.01      0.01      0.36      0.01         0.01
  YS02001790YS02001791        0.36      0.36      0.46      0.01         0.01
  YS02001791YS02001793        0.46      0.46      0.74      0.01         0.01
  YS02001629YS02163301        5.22      5.22      5.26      0.01         0.01
  YS02001619YS02001622        2.01      2.01      2.17      0.01         0.01
  YS02001622YS02001625        2.17      2.17      5.08      0.01         0.01
  YS02001625YS02001629        2.03      2.03      5.08      0.01         0.01
  YS02163301YS02001633        5.26      5.26      5.33      0.01         0.01
  YS02163601YS02164001        5.32      5.32      5.36      0.01         0.01
  YS02164001YS02001641        5.32      5.32      5.33      0.01         0.01
  YS02001641YS02001644        5.33      5.33      5.33      0.01         0.76
  YS02001647YS02001649        5.00      5.00      5.36      0.01         0.01
  YS02001907YS02006553        0.46      0.46      0.78      0.01         0.01
  YS02006558YS02006561        0.01      0.01      0.01      0.12         0.01
  YS02001633YS02163601        5.30      5.30      5.36      0.01         0.01
  YS02001644YS02001647        5.00      5.00      5.33      0.01         0.01
  YS02001745YS02001748        0.01      0.01      0.01      0.01         0.01
  YS02001748YS02001751        0.60      0.60      2.31      0.01         0.01
  YS02001751YS02001754        2.31      2.31      4.49      0.01         0.01
  YS02001754YS02001757        5.00      5.00      5.46      0.01         0.01
  YS02001652YS02001649        5.05      5.05      5.36      0.01         0.01
  YS02001655YS02001652        2.67      2.67      4.84      0.01         0.01
  YS02001658YS02001655        0.04      0.04      2.67      0.01         0.01
  YS02001661YS02001658        0.01      0.01      0.04      0.01         0.01
  YS02001793JiankangQianchi        0.67      0.67      1.85      0.01         0.01
  YS02001757CaochengTiaoxuchi        1.51      1.51      5.46      0.01         0.01
  3                           0.01      0.01      0.01      0.01         0.01
  
  
  ***************
  Pumping Summary
  ***************
  
  ---------------------------------------------------------------------------------------------------------
                                                  Min       Avg       Max     Total     Power    % Time Off
                        Percent   Number of      Flow      Flow      Flow    Volume     Usage    Pump Curve
  Pump                 Utilized   Start-Ups       LPS       LPS       LPS  10^6 ltr     Kw-hr    Low   High
  ---------------------------------------------------------------------------------------------------------
  CC-Pump-1               67.35           3      0.00    150.79    200.00     2.812      7.15    0.0   12.2
  CC-Pump-2               56.71           6      0.00    136.68    200.00     2.212      5.79    0.0   10.8
  JK-Pump-1               85.10           6      0.00    161.21    300.00     3.058     44.07    0.0    0.0
  JK-Pump-2               80.86           7      0.00    128.83    300.00     2.132     32.92    0.0    0.0
  XR-Pump-1               85.09           6      0.00     70.33     95.00     1.624     12.20    0.0    0.0
  XR-Pump-2               89.35           6      0.00     68.70     95.00     1.710     13.36    0.0    0.0
  XR-Pump-3               89.35           7      0.00     65.90     95.00     1.682     13.59    0.0    0.0
  XR-Pump-4               82.96          10      0.00     65.03     95.00     1.539     11.98    0.0    0.0
  

  Analysis begun on:  Tue Dec 21 15:36:31 2021
  Analysis ended on:  Tue Dec 21 15:36:35 2021
  Total elapsed time: 00:00:04