
  EPA STORM WATER MANAGEMENT MODEL - VERSION 5.1 (Build 5.3.0.dev0)
  --------------------------------------------------------------

  WARNING 04: minimum elevation drop used for Conduit WS02004404WS02004405
  WARNING 03: negative offset ignored for Link YS02001904YS02001907
  
  *********************************************************
  NOTE: The summary statistics displayed in this report are
  based on results found at every computational time step,  
  not just on results from each reporting time step.
  *********************************************************
  
  ****************
  Analysis Options
  ****************
  Flow Units ............... LPS
  Process Models:
    Rainfall/Runoff ........ YES
    RDII ................... NO
    Snowmelt ............... NO
    Groundwater ............ NO
    Flow Routing ........... YES
    Ponding Allowed ........ NO
    Water Quality .......... NO
  Infiltration Method ...... HORTON
  Flow Routing Method ...... DYNWAVE
  Surcharge Method ......... EXTRAN
  Starting Date ............ 08/28/2015 08:00:00
  Ending Date .............. 08/28/2015 15:50:00
  Antecedent Dry Days ...... 8.0
  Report Time Step ......... 00:01:00
  Wet Time Step ............ 00:01:00
  Dry Time Step ............ 00:01:00
  Routing Time Step ........ 5.00 sec
  Variable Time Step ....... YES
  Maximum Trials ........... 8
  Number of Threads ........ 4
  Head Tolerance ........... 0.001500 m
  
  
  **************************        Volume         Depth
  Runoff Quantity Continuity     hectare-m            mm
  **************************     ---------       -------
  Total Precipitation ......         2.372         5.192
  Evaporation Loss .........         0.000         0.000
  Infiltration Loss ........         0.592         1.296
  Surface Runoff ...........         0.926         2.027
  Final Storage ............         0.854         1.870
  Continuity Error (%) .....        -0.018
  
  
  **************************        Volume        Volume
  Flow Routing Continuity        hectare-m      10^6 ltr
  **************************     ---------     ---------
  Dry Weather Inflow .......         0.616         6.165
  Wet Weather Inflow .......         0.925         9.252
  Groundwater Inflow .......         0.000         0.000
  RDII Inflow ..............         0.000         0.000
  External Inflow ..........         0.102         1.024
  External Outflow .........         1.646        16.455
  Flooding Loss ............         0.003         0.032
  Evaporation Loss .........         0.000         0.000
  Exfiltration Loss ........         0.000         0.000
  Initial Stored Volume ....         0.076         0.761
  Final Stored Volume ......         0.221         2.211
  Continuity Error (%) .....        -8.703
  
  
  *************************
  Highest Continuity Errors
  *************************
  Node JK-storage (-44.42%)
  Node HS02004842 (31.24%)
  Node YS02001884 (25.77%)
  Node YS02001774 (10.04%)
  Node YSB1171 (8.11%)
  
  
  ***************************
  Time-Step Critical Elements
  ***************************
  Link WS02006252WS02006251 (52.42%)
  Link 3 (35.43%)
  Link WS02006238WS02006235 (3.43%)
  Link WS02006280WS02006229 (2.55%)
  
  
  ********************************
  Highest Flow Instability Indexes
  ********************************
  Link WS02006113WS02006111 (43)
  Link WS02006111WS02006112 (20)
  Link YS02001754YS02001757 (3)
  Link YS02001762YS02001759 (3)
  Link YS02001751YS02001754 (3)
  
  
  *************************
  Routing Time Step Summary
  *************************
  Minimum Time Step           :     0.22 sec
  Average Time Step           :     0.96 sec
  Maximum Time Step           :     5.00 sec
  Percent in Steady State     :    -0.00
  Average Iterations per Step :     2.02
  Percent Not Converging      :     0.11
  
  
  ***************************
  Subcatchment Runoff Summary
  ***************************
  
  ------------------------------------------------------------------------------------------------------------------------------
                            Total      Total      Total      Total     Imperv       Perv      Total       Total     Peak  Runoff
                           Precip      Runon       Evap      Infil     Runoff     Runoff     Runoff      Runoff   Runoff   Coeff
  Subcatchment                 mm         mm         mm         mm         mm         mm         mm    10^6 ltr      LPS
  ------------------------------------------------------------------------------------------------------------------------------
  sub0                       5.19       0.00       0.00       0.36       3.56       0.00       3.56        0.00     1.15   0.686
  sub1                       5.19       0.00       0.00       0.57       3.37       0.00       3.37        0.02     5.96   0.648
  sub2                       5.19       0.00       0.00       1.92       2.37       0.00       2.37        0.02     5.26   0.456
  sub3                       5.19       0.00       0.00       1.92       2.33       0.00       2.33        0.05    10.80   0.449
  sub4                       5.19       0.00       0.00       0.57       3.23       0.00       3.23        0.07    12.10   0.623
  sub5                       5.19       0.00       0.00       0.36       3.52       0.00       3.52        0.04    10.60   0.678
  sub7                       5.19       0.00       0.00       0.47       3.47       0.00       3.47        0.01     3.76   0.668
  sub8                       5.19       0.00       0.00       0.47       3.46       0.00       3.46        0.02     6.61   0.667
  sub9                       5.19       0.00       0.00       0.47       3.46       0.00       3.46        0.02     4.90   0.666
  sub10                      5.19       0.00       0.00       0.42       3.49       0.00       3.49        0.04    10.59   0.671
  sub11                      5.19       0.00       0.00       0.42       3.50       0.00       3.50        0.04    12.45   0.675
  sub12                      5.19       0.00       0.00       0.67       3.33       0.00       3.33        0.03    10.59   0.641
  sub14                      5.19       0.00       0.00       0.47       3.46       0.00       3.46        0.03     9.57   0.666
  sub15                      5.19       0.00       0.00       1.56       2.66       0.00       2.66        0.05    12.99   0.512
  sub16                      5.19       0.00       0.00       1.71       2.56       0.00       2.56        0.03     9.29   0.493
  sub17                      5.19       0.00       0.00       1.66       2.60       0.00       2.60        0.02     7.50   0.500
  sub22                      5.19       0.00       0.00       2.23       2.17       0.00       2.17        0.14    42.61   0.418
  sub23                      5.19       0.00       0.00       1.92       2.40       0.00       2.40        0.11    36.31   0.463
  sub60                      5.19       0.00       0.00       0.62       2.24       0.00       2.24        0.68    60.68   0.431
  sub61                      5.19       0.00       0.00       0.88       2.42       0.00       2.42        0.75    76.50   0.467
  sub62                      5.19       0.00       0.00       0.42       2.59       0.00       2.59        0.80    78.10   0.499
  sub63                      5.19       0.00       0.00       1.51       2.17       0.00       2.17        0.66    71.50   0.417
  sub64                      5.19       0.00       0.00       0.78       2.14       0.00       2.14        0.65    57.58   0.412
  sub65                      5.19       0.00       0.00       0.67       2.16       0.00       2.16        0.67    58.37   0.416
  sub66                      5.19       0.00       0.00       1.51       1.87       0.00       1.87        0.57    52.94   0.361
  sub67                      5.19       0.00       0.00       0.42       2.88       0.00       2.88        0.89   100.59   0.554
  sub68                      5.19       0.00       0.00       0.73       2.59       0.00       2.59        0.79    84.66   0.498
  sub69                      5.19       0.00       0.00       0.78       2.82       0.00       2.82        0.66    84.40   0.543
  sub70                      5.19       2.88       0.00       2.74       3.38       0.00       3.38        0.77    66.05   0.419
  sub71                      5.19       0.00       0.00       0.42       2.47       0.00       2.47        0.58    54.45   0.475
  sub72                      5.19       0.00       0.00       0.36       1.70       0.00       1.70        0.35    25.19   0.327
  sub73                      5.19       3.29       0.00       2.88       3.38       0.00       3.38        0.79    56.43   0.399
  sub74                      5.19       0.00       0.00       3.89       0.85       0.00       0.85        0.34    47.15   0.164
  
  
  ******************
  Node Depth Summary
  ******************
  
  ---------------------------------------------------------------------------------
                                 Average  Maximum  Maximum  Time of Max    Reported
                                   Depth    Depth      HGL   Occurrence   Max Depth
  Node                 Type       Meters   Meters   Meters  days hr:min      Meters
  ---------------------------------------------------------------------------------
  WS02001211           JUNCTION     0.65     0.78     5.61     0  02:50        0.78
  WS02001212           JUNCTION     0.38     0.49     5.55     0  02:51        0.49
  WS02001213           JUNCTION     0.61     0.74     5.50     0  02:51        0.73
  WS02003069           JUNCTION     0.43     0.55     5.14     0  02:53        0.55
  WS02003072           JUNCTION     0.50     0.61     4.99     0  02:53        0.61
  WS02003073           JUNCTION     0.30     0.38     4.44     0  02:54        0.38
  WS02003060           JUNCTION     0.38     0.49     5.42     0  02:52        0.49
  WS02003066           JUNCTION     0.23     0.29     5.84     0  02:42        0.29
  WS02003059           JUNCTION     0.67     0.79     5.48     0  02:52        0.79
  WS02003067           JUNCTION     0.56     0.68     6.00     0  02:42        0.68
  WS02004401           JUNCTION     0.66     0.82     6.82     0  02:37        0.82
  WS02004402           JUNCTION     0.69     0.85     6.81     0  02:37        0.85
  WS02004403           JUNCTION     0.71     0.87     6.80     0  02:38        0.87
  WS02004404           JUNCTION     0.79     0.94     6.79     0  02:38        0.94
  WS02004406           JUNCTION     0.79     0.94     6.77     0  02:38        0.94
  WS02004409           JUNCTION     0.48     0.64     6.41     0  02:40        0.64
  WS02004410           JUNCTION     0.50     0.65     6.37     0  02:41        0.65
  WS02004411           JUNCTION     0.51     0.66     6.34     0  02:41        0.66
  WS02004412           JUNCTION     0.53     0.67     6.31     0  02:41        0.67
  WS02004413           JUNCTION     0.68     0.83     6.30     0  02:41        0.83
  WS02004405           JUNCTION     0.78     0.93     6.78     0  02:38        0.93
  WS02006109           JUNCTION     0.74     0.94     7.56     0  02:32        0.94
  WS02006110           JUNCTION     0.73     0.90     7.49     0  02:33        0.90
  WS02006111           JUNCTION     0.21     0.28     6.99     0  02:34        0.28
  WS02006112           JUNCTION     0.83     1.01     6.90     0  02:37        1.01
  WS02006113           JUNCTION     0.33     0.44     7.33     0  02:33        0.44
  WS02006115           JUNCTION     0.55     0.72     6.86     0  02:37        0.72
  WS02006116           JUNCTION     0.63     0.80     6.84     0  02:38        0.80
  WS02006230           JUNCTION     0.71     0.98     7.73     0  02:32        0.98
  WS02006231           JUNCTION     0.47     0.66     7.78     0  02:32        0.66
  WS02006232           JUNCTION     0.61     0.79     7.83     0  02:32        0.79
  WS02006234           JUNCTION     0.54     0.74     7.89     0  02:32        0.73
  WS02006235           JUNCTION     0.57     0.77     7.94     0  02:51        0.77
  WS02006238           JUNCTION     0.60     0.80     7.95     0  02:51        0.80
  WS02006240           JUNCTION     0.50     0.73     8.02     0  02:51        0.73
  WS02006242           JUNCTION     0.56     0.80     8.06     0  02:51        0.80
  WS02006243           JUNCTION     0.44     0.69     8.11     0  02:51        0.69
  WS02006245           JUNCTION     0.43     0.66     8.14     0  02:51        0.66
  WS02006247           JUNCTION     0.45     0.66     8.16     0  02:51        0.66
  WS02006248           JUNCTION     0.39     0.60     8.19     0  02:51        0.60
  WS02006249           JUNCTION     0.42     0.61     8.21     0  02:50        0.61
  WS02006239           JUNCTION     0.55     0.78     7.98     0  02:51        0.77
  WS02006251           JUNCTION     0.42     0.63     8.30     0  02:50        0.63
  WS02006252           JUNCTION     0.38     0.59     8.83     0  02:27        0.58
  WS02006253           JUNCTION     0.45     0.66     8.30     0  02:50        0.65
  WS02006256           JUNCTION     1.00     2.35     9.28     0  00:00        1.21
  WS02004138           JUNCTION     0.15     0.19     7.44     0  02:19        0.19
  WS02004407           JUNCTION     0.22     0.28     6.60     0  02:38        0.28
  WS02006228           JUNCTION     0.74     0.97     7.63     0  02:32        0.97
  WS02006229           JUNCTION     0.71     0.97     7.66     0  02:32        0.97
  WS02006280           JUNCTION     0.05     0.13     8.40     0  02:20        0.13
  WS02006284           JUNCTION     0.35     0.46     8.86     0  02:20        0.46
  WS02006287           JUNCTION     0.08     0.19     9.15     0  02:20        0.19
  WSF200               JUNCTION     0.21     0.29     5.53     0  02:59        0.29
  HS02004901           JUNCTION     0.11     0.21    10.04     0  02:18        0.21
  HS02004881           JUNCTION     0.01     0.02     9.05     0  02:19        0.02
  HS02004876           JUNCTION     0.03     0.10     9.13     0  02:19        0.10
  HS02004870           JUNCTION     0.01     0.04     9.32     0  02:20        0.04
  HS02004862           JUNCTION     0.01     0.04     9.42     0  02:21        0.04
  HS02004856           JUNCTION     0.07     0.10     9.53     0  02:20        0.10
  HS02004852           JUNCTION     0.01     0.02     9.53     0  02:21        0.02
  HS02004848           JUNCTION     0.01     0.02     9.62     0  02:19        0.02
  HS02004842           JUNCTION     0.33     0.35     9.62     0  02:19        0.35
  HS02004837           JUNCTION     0.03     0.04     9.62     0  02:19        0.04
  HS02004830           JUNCTION     0.04     0.06     9.53     0  02:20        0.06
  HS02004824           JUNCTION     0.02     0.04     9.44     0  02:23        0.04
  HS02004817           JUNCTION     0.42     0.51     9.36     0  02:20        0.51
  HS02004807           JUNCTION     0.11     0.18     9.35     0  02:20        0.18
  HS02004802           JUNCTION     0.15     0.22     9.35     0  02:20        0.22
  HS02004799           JUNCTION     0.10     0.23     9.44     0  02:18        0.23
  HS02004792           JUNCTION     0.02     0.08     9.61     0  02:17        0.08
  HS02004788           JUNCTION     0.02     0.06     9.96     0  02:19        0.06
  HS02004785           JUNCTION     0.03     0.12    10.02     0  02:18        0.12
  HS02004777           JUNCTION     0.13     0.23    10.03     0  02:18        0.23
  HS02004770           JUNCTION     0.10     0.20    10.04     0  02:18        0.20
  HS02004480           JUNCTION     0.06     0.18     9.42     0  02:19        0.18
  HS02004479           JUNCTION     0.10     0.21     9.42     0  02:19        0.21
  HS02004478           JUNCTION     0.05     0.11     9.34     0  02:20        0.11
  YS02001745           JUNCTION     0.07     0.11     7.62     0  03:01        0.11
  YS02001748           JUNCTION     0.12     0.33     7.40     0  03:15        0.33
  YS02001751           JUNCTION     0.28     0.53     7.41     0  03:13        0.52
  YS02001754           JUNCTION     0.53     0.80     7.41     0  03:11        0.79
  YS02001762           JUNCTION     0.73     0.97     7.37     0  03:08        0.96
  YS02001765           JUNCTION     0.68     0.92     7.37     0  03:12        0.91
  YS02001767           JUNCTION     0.65     0.89     7.37     0  03:11        0.89
  YS02001770           JUNCTION     0.64     0.86     7.36     0  03:05        0.86
  YS02001774           JUNCTION     0.71     0.94     7.36     0  03:07        0.93
  YS02001779           JUNCTION     0.46     0.68     7.37     0  03:10        0.67
  YS02001882           JUNCTION     0.27     0.40     7.12     0  02:57        0.40
  YS02001884           JUNCTION     0.36     0.50     7.12     0  02:56        0.50
  YS02001759           JUNCTION     0.76     1.02     7.38     0  03:08        1.00
  YS02001887           JUNCTION     0.44     0.58     7.12     0  02:56        0.58
  YS02001890           JUNCTION     0.47     0.61     7.12     0  02:56        0.61
  YS02001898           JUNCTION     0.24     0.37     7.10     0  02:58        0.37
  YS02001901           JUNCTION     0.36     0.49     7.10     0  02:58        0.49
  YS02001904           JUNCTION     0.34     0.47     7.10     0  02:58        0.47
  YS02001907           JUNCTION     0.66     0.81     7.10     0  02:57        0.81
  YS02001910           JUNCTION     0.45     0.60     7.10     0  02:57        0.60
  YS02001915           JUNCTION     0.25     0.38     7.10     0  02:58        0.38
  YS02001918           JUNCTION     0.07     0.09     7.15     0  03:03        0.09
  YS02001619           JUNCTION     0.24     0.44     7.37     0  03:09        0.43
  YS02001629           JUNCTION     0.59     0.81     7.36     0  03:08        0.81
  YS02001641           JUNCTION     0.70     0.93     7.37     0  03:07        0.92
  YS02001644           JUNCTION     0.70     0.93     7.36     0  03:06        0.93
  YS02001652           JUNCTION     0.54     0.80     7.39     0  03:11        0.79
  YS02001655           JUNCTION     0.31     0.55     7.40     0  03:09        0.54
  YS02001920           JUNCTION     0.16     0.19     7.20     0  03:03        0.19
  YS02001923           JUNCTION     0.06     0.07     7.33     0  03:02        0.07
  YS02001926           JUNCTION     0.13     0.16     7.61     0  03:02        0.16
  YS02001929           JUNCTION     0.06     0.08     7.77     0  03:01        0.08
  YS02001658           JUNCTION     0.09     0.25     7.39     0  03:13        0.24
  YS02001661           JUNCTION     0.14     0.19     7.59     0  02:48        0.19
  YS02001664           JUNCTION     0.06     0.10     8.03     0  02:48        0.10
  YS02001622           JUNCTION     0.26     0.45     7.36     0  03:08        0.45
  YS02001633           JUNCTION     0.68     0.91     7.37     0  03:12        0.91
  YS02001649           JUNCTION     0.74     0.98     7.37     0  03:05        0.98
  YS02001757           JUNCTION     0.86     1.12     7.38     0  03:14        1.11
  YS02001895           JUNCTION     0.23     0.37     7.11     0  02:57        0.37
  YS02001625           JUNCTION     0.54     0.77     7.37     0  03:09        0.77
  YS02163301           JUNCTION     0.62     0.85     7.37     0  03:07        0.84
  YS02163601           JUNCTION     0.74     0.97     7.37     0  03:09        0.96
  YS02164001           JUNCTION     0.68     0.91     7.36     0  03:07        0.90
  YS02001647           JUNCTION     0.53     0.75     7.36     0  03:07        0.75
  YSB1154              JUNCTION     0.24     0.36     9.42     0  02:19        0.36
  YSB6556              JUNCTION     0.13     0.25     9.42     0  02:18        0.25
  YSB1174              JUNCTION     0.19     0.31     9.42     0  02:19        0.31
  YSB1171              JUNCTION     0.39     0.52     9.42     0  02:19        0.52
  YS02006553           JUNCTION     0.67     0.82     7.10     0  02:58        0.82
  YS02006561           JUNCTION     0.13     0.20     6.86     0  02:58        0.20
  YS02006556           JUNCTION     0.64     0.79     7.10     0  02:58        0.79
  YS02006558           JUNCTION     0.69     0.83     7.10     0  02:58        0.83
  YS02001783           JUNCTION     0.22     0.36     6.50     0  02:58        0.36
  YS02001784           JUNCTION     0.26     0.38     6.45     0  02:58        0.38
  YS02001786           JUNCTION     0.22     0.33     6.36     0  02:59        0.33
  YS02001788           JUNCTION     0.16     0.24     6.22     0  02:59        0.24
  YS02001790           JUNCTION     0.19     0.30     5.94     0  02:59        0.30
  YS02001791           JUNCTION     0.13     0.19     5.66     0  02:51        0.19
  YS02001793           JUNCTION     0.08     0.13     4.96     0  02:51        0.13
  WS02004139           JUNCTION     0.59     0.72     5.63     0  02:50        0.72
  WSC                  OUTFALL      0.30     0.38     1.05     0  02:54        0.38
  3                    OUTFALL      0.08     0.23     6.23     0  00:00        0.20
  4                    OUTFALL      0.03     0.11     7.11     0  02:50        0.11
  5                    OUTFALL      0.00     0.00     5.00     0  00:00        0.00
  JK-storage           STORAGE      0.11     3.00     3.80     0  00:00        2.39
  CC-storage           STORAGE      0.06     0.20     7.20     0  04:44        0.20
  XR-storage           STORAGE      5.59     7.72     5.72     0  05:13        7.72
  
  
  *******************
  Node Inflow Summary
  *******************
  
  -------------------------------------------------------------------------------------------------
                                  Maximum  Maximum                  Lateral       Total        Flow
                                  Lateral    Total  Time of Max      Inflow      Inflow     Balance
                                   Inflow   Inflow   Occurrence      Volume      Volume       Error
  Node                 Type           LPS      LPS  days hr:min    10^6 ltr    10^6 ltr     Percent
  -------------------------------------------------------------------------------------------------
  WS02001211           JUNCTION      7.35   387.62     0  02:18       0.207        6.72       0.631
  WS02001212           JUNCTION      0.00   387.52     0  02:17           0        6.68       0.424
  WS02001213           JUNCTION      0.00   387.39     0  02:17           0        6.65       0.316
  WS02003069           JUNCTION      0.32   863.27     0  02:52     0.00902        13.7       0.230
  WS02003072           JUNCTION      0.00   862.61     0  02:53           0        13.6       0.278
  WS02003073           JUNCTION      1.82   864.02     0  02:53      0.0514        13.6       0.314
  WS02003060           JUNCTION     16.53   863.32     0  02:52       0.466        13.7       0.219
  WS02003066           JUNCTION      0.00   494.22     0  02:42           0        6.63       0.060
  WS02003059           JUNCTION      0.00   386.40     0  02:17           0        6.63       0.627
  WS02003067           JUNCTION      0.00   494.16     0  02:42           0        6.63       0.129
  WS02004401           JUNCTION      0.00   502.33     0  02:35           0        6.85       0.295
  WS02004402           JUNCTION      0.00   501.15     0  02:37           0        6.83       0.280
  WS02004403           JUNCTION      0.00   500.91     0  02:37           0        6.81       0.256
  WS02004404           JUNCTION      0.16   500.81     0  02:38     0.00457         6.8       0.194
  WS02004406           JUNCTION      0.00   500.83     0  02:38           0        6.77       0.474
  WS02004409           JUNCTION      0.00   500.18     0  02:38           0        6.73       0.214
  WS02004410           JUNCTION      0.00   497.13     0  02:39           0        6.71       0.244
  WS02004411           JUNCTION      0.00   495.52     0  02:40           0         6.7       0.252
  WS02004412           JUNCTION      0.00   494.75     0  02:41           0        6.68       0.276
  WS02004413           JUNCTION      0.00   494.36     0  02:41           0        6.66       0.416
  WS02004405           JUNCTION      0.04   500.68     0  02:38     0.00107        6.79       0.294
  WS02006109           JUNCTION      1.23   511.92     0  02:32      0.0347        6.94       0.283
  WS02006110           JUNCTION      0.00   511.89     0  02:32           0        6.92       0.270
  WS02006111           JUNCTION      0.00   530.46     0  02:33           0         6.9       0.055
  WS02006112           JUNCTION      7.50   520.27     0  02:34      0.0223        6.91       0.385
  WS02006113           JUNCTION      0.00   512.20     0  02:33           0         6.9       0.130
  WS02006115           JUNCTION      0.00   511.49     0  02:34           0        6.89       0.273
  WS02006116           JUNCTION      0.00   505.66     0  02:35           0        6.87       0.265
  WS02006230           JUNCTION     10.28   396.02     0  03:51        0.29        6.15       0.215
  WS02006231           JUNCTION      0.00   386.22     0  05:14           0        5.87       0.159
  WS02006232           JUNCTION      0.00   386.25     0  05:14           0        5.88       0.259
  WS02006234           JUNCTION      0.00   387.03     0  05:14           0        5.89       0.119
  WS02006235           JUNCTION      0.00   387.23     0  04:54           0        5.92       0.167
  WS02006238           JUNCTION      0.00   343.28     0  05:10           0        4.16       0.165
  WS02006240           JUNCTION      0.00   337.33     0  05:10           0        4.16       0.248
  WS02006242           JUNCTION      0.00   336.77     0  02:29           0        4.16       0.316
  WS02006243           JUNCTION      0.00   349.73     0  02:28           0        4.15      -0.130
  WS02006245           JUNCTION      0.00   357.88     0  02:28           0        4.16       0.267
  WS02006247           JUNCTION      0.00   363.68     0  02:28           0        4.17       0.156
  WS02006248           JUNCTION      0.00   369.62     0  02:28           0        4.17       0.038
  WS02006249           JUNCTION      0.00   428.62     0  02:29           0        4.79       0.257
  WS02006239           JUNCTION      0.00   341.84     0  05:10           0        4.16       0.214
  WS02006251           JUNCTION      0.08   431.94     0  02:28     0.00217        4.83       0.166
  WS02006252           JUNCTION      0.00   400.00     0  02:27           0        4.67       0.009
  WS02006253           JUNCTION      1.15    33.23     0  02:24     0.00288        0.16       2.072
  WS02006256           JUNCTION      0.00   600.00     0  00:00           0        4.05       0.045
  WS02004138           JUNCTION      0.00   380.00     0  02:10           0        6.55       0.075
  WS02004407           JUNCTION      0.00   500.37     0  02:38           0        6.73       0.099
  WS02006228           JUNCTION      0.00   510.68     0  02:32           0        6.92       0.211
  WS02006229           JUNCTION      0.00   510.81     0  02:32           0        6.93       0.163
  WS02006280           JUNCTION      0.00   171.53     0  02:20           0       0.797       0.009
  WS02006284           JUNCTION      0.10   171.53     0  02:20      0.0027       0.798       0.136
  WS02006287           JUNCTION      0.00   171.44     0  02:20           0       0.796       0.091
  WSF200               JUNCTION      0.00   494.24     0  02:42           0        6.62       0.056
  HS02004901           JUNCTION      9.29     9.29     0  02:11      0.0268      0.0269       6.976
  HS02004881           JUNCTION      3.76    31.92     0  02:19      0.0117       0.122       0.226
  HS02004876           JUNCTION      5.96    28.45     0  02:19      0.0224       0.111       0.475
  HS02004870           JUNCTION      6.61    22.61     0  02:19      0.0221      0.0886       0.120
  HS02004862           JUNCTION      5.46    16.44     0  02:20      0.0277      0.0667       0.252
  HS02004856           JUNCTION      4.90    11.02     0  02:19      0.0166      0.0405       3.685
  HS02004852           JUNCTION      0.00     6.43     0  02:19           0      0.0239       0.208
  HS02004848           JUNCTION     10.80    10.80     0  02:22      0.0525      0.0525       0.082
  HS02004842           JUNCTION      0.00     4.72     0  02:32           0      0.0416      45.433
  HS02004837           JUNCTION     16.94    21.03     0  02:18       0.217       0.246       0.332
  HS02004830           JUNCTION      0.15    21.17     0  02:19     0.00423       0.236       0.523
  HS02004824           JUNCTION     12.15    33.17     0  02:23      0.0688       0.304       0.177
  HS02004817           JUNCTION      0.60    33.76     0  02:23      0.0169        0.32       5.485
  HS02004807           JUNCTION     12.45    45.10     0  02:21      0.0407       0.344       1.242
  HS02004802           JUNCTION      0.00    45.26     0  02:22           0        0.34       1.209
  HS02004799           JUNCTION      9.57   107.61     0  02:17      0.0329       0.406       0.562
  HS02004792           JUNCTION     42.89    98.24     0  02:17       0.145       0.373       0.111
  HS02004788           JUNCTION     14.66    57.20     0  02:18      0.0928       0.229       0.169
  HS02004785           JUNCTION      0.15    42.96     0  02:17     0.00423       0.139       0.348
  HS02004777           JUNCTION      0.03    43.33     0  02:16    0.000846       0.139       3.870
  HS02004770           JUNCTION     36.31    44.48     0  02:14       0.114        0.14       2.268
  HS02004480           JUNCTION      0.00   126.87     0  02:18           0       0.472       0.150
  HS02004479           JUNCTION      0.00    19.65     0  02:20           0      0.0784       0.939
  HS02004478           JUNCTION      0.00   171.45     0  02:20           0       0.797       0.079
  YS02001745           JUNCTION     60.68    60.68     0  03:01       0.678       0.678       0.079
  YS02001748           JUNCTION      0.04   148.33     0  03:14     0.00127       0.703      -0.019
  YS02001751           JUNCTION      0.01   204.17     0  03:15     0.00031       0.832       0.267
  YS02001754           JUNCTION      0.26   258.54     0  05:07     0.00733         1.2       0.819
  YS02001762           JUNCTION      0.00   137.92     0  03:11           0       0.831       1.670
  YS02001765           JUNCTION      0.00   127.89     0  03:12           0       0.825       1.762
  YS02001767           JUNCTION      0.54   120.82     0  03:13      0.0151       0.831       2.466
  YS02001770           JUNCTION     78.26   111.08     0  03:12         0.8       0.854       1.978
  YS02001774           JUNCTION      0.00    42.56     0  03:14           0       0.148      11.160
  YS02001779           JUNCTION      0.01    38.74     0  03:10    0.000141      0.0788       7.376
  YS02001882           JUNCTION      0.00     3.29     0  02:09           0     0.00451      54.433
  YS02001884           JUNCTION      0.00     9.42     0  02:08           0      0.0182      34.709
  YS02001759           JUNCTION     76.54   199.46     0  03:10       0.748        1.55       1.052
  YS02001887           JUNCTION    101.04   101.04     0  02:46         0.9       0.909       0.772
  YS02001890           JUNCTION      0.00   100.43     0  02:47           0       0.887       0.869
  YS02001898           JUNCTION      0.00   100.02     0  02:50           0       0.876       0.235
  YS02001901           JUNCTION      0.00    99.93     0  02:51           0       0.875       0.612
  YS02001904           JUNCTION      0.00    99.58     0  02:53           0       0.874       0.570
  YS02001907           JUNCTION      0.00   181.34     0  03:02           0        1.87       1.179
  YS02001910           JUNCTION      0.00    82.57     0  03:00           0           1       0.999
  YS02001915           JUNCTION     54.47    82.30     0  03:01       0.582        1.01       0.432
  YS02001918           JUNCTION      0.00    28.05     0  03:03           0       0.424       0.241
  YS02001619           JUNCTION     52.94    52.94     0  03:01       0.574       0.574       0.116
  YS02001629           JUNCTION      0.00    90.03     0  03:14           0       0.558       1.012
  YS02001641           JUNCTION      0.00   131.47     0  03:11           0        1.19       1.096
  YS02001644           JUNCTION     57.62   189.26     0  03:09       0.651        1.82       0.867
  YS02001652           JUNCTION      0.00   130.47     0  03:13           0       0.731       1.213
  YS02001655           JUNCTION      0.15   177.87     0  03:17     0.00434        0.68       0.532
  YS02001920           JUNCTION      2.87    28.07     0  03:02      0.0809       0.426       0.451
  YS02001923           JUNCTION      0.04    25.20     0  03:02     0.00106       0.346       0.079
  YS02001926           JUNCTION      0.05    25.23     0  03:01     0.00147       0.347       0.569
  YS02001929           JUNCTION     25.19    25.19     0  03:01       0.345       0.345       0.076
  YS02001658           JUNCTION      0.00    99.70     0  03:16           0       0.661       0.048
  YS02001661           JUNCTION      0.00    71.50     0  02:48           0       0.656       0.118
  YS02001664           JUNCTION     71.50    71.50     0  02:48       0.656       0.656       0.025
  YS02001622           JUNCTION      0.00    71.16     0  03:12           0       0.573       0.502
  YS02001633           JUNCTION     58.57   131.08     0  03:15        0.67        1.21       1.553
  YS02001649           JUNCTION      0.00   347.44     0  03:10           0        2.49       0.969
  YS02001757           JUNCTION      0.00   541.88     0  03:14           0        4.92       1.431
  YS02001895           JUNCTION      0.00   100.14     0  02:50           0       0.879       0.402
  YS02001625           JUNCTION      0.00    80.01     0  03:12           0       0.571       2.784
  YS02163301           JUNCTION      0.00    89.40     0  03:09           0        0.56       2.271
  YS02163601           JUNCTION      0.11   140.93     0  03:14      0.0031        1.19       1.651
  YS02164001           JUNCTION      0.00   140.49     0  03:10           0        1.18       1.011
  YS02001647           JUNCTION      0.00   196.07     0  03:16           0        1.79       0.682
  YSB1154              JUNCTION     10.60    10.60     0  02:16      0.0398      0.0412       3.632
  YSB6556              JUNCTION      0.00    10.60     0  02:18           0      0.0422       3.038
  YSB1174              JUNCTION     10.59    10.59     0  02:11      0.0291      0.0301       4.450
  YSB1171              JUNCTION      0.00    19.64     0  02:17           0      0.0779       8.830
  YS02006553           JUNCTION      0.00   181.65     0  03:02           0        1.85       0.766
  YS02006561           JUNCTION      0.00   266.04     0  02:58           0        2.62       0.023
  YS02006556           JUNCTION      0.00   181.86     0  03:02           0        1.86       0.551
  YS02006558           JUNCTION     85.54   266.05     0  02:58       0.819        2.65       0.168
  YS02001783           JUNCTION      0.00   266.04     0  02:58           0        2.62       0.054
  YS02001784           JUNCTION      1.06   267.10     0  02:58      0.0299        2.65       0.090
  YS02001786           JUNCTION      0.06   267.15     0  02:59     0.00159        2.65       0.087
  YS02001788           JUNCTION      0.07   267.21     0  02:59       0.002        2.65       0.050
  YS02001790           JUNCTION      0.15   267.37     0  02:59     0.00437        2.65       0.063
  YS02001791           JUNCTION      0.00   267.36     0  02:59           0        2.65       0.031
  YS02001793           JUNCTION      0.00   270.24     0  02:51           0        2.65       0.013
  WS02004139           JUNCTION      0.32   380.32     0  02:12     0.00905        6.56       0.656
  WSC                  OUTFALL       0.00   863.31     0  02:54           0        13.6       0.000
  3                    OUTFALL       0.00   597.65     0  00:00           0        2.26       0.000
  4                    OUTFALL       0.00   119.92     0  02:50           0       0.603       0.000
  5                    OUTFALL       0.00     0.00     0  00:00           0           0       0.000 ltr
  JK-storage           STORAGE       0.00   271.05     0  02:51           0         2.8     -30.756
  CC-storage           STORAGE       0.00   443.87     0  03:07           0        4.46      -4.513
  XR-storage           STORAGE     298.58   298.58     0  02:58        6.77        7.37       0.000
  
  
  **********************
  Node Surcharge Summary
  **********************
  
  Surcharging occurs when water rises above the top of the highest conduit.
  ---------------------------------------------------------------------
                                               Max. Height   Min. Depth
                                   Hours       Above Crown    Below Rim
  Node                 Type      Surcharged         Meters       Meters
  ---------------------------------------------------------------------
  WS02006109           JUNCTION        2.12          0.123        1.697
  WS02006112           JUNCTION        0.09          0.012        1.668
  WS02006232           JUNCTION        2.39          0.093        1.387
  WS02006234           JUNCTION        0.15          0.015        1.225
  WS02006235           JUNCTION        1.53          0.063        1.227
  WS02006238           JUNCTION        1.99          0.082        1.348
  WS02006240           JUNCTION        0.13          0.017        1.373
  WS02006242           JUNCTION        1.68          0.066        0.754
  WS02006239           JUNCTION        0.93          0.035        1.255
  WS02006252           JUNCTION        2.47          0.186        0.914
  WS02006256           JUNCTION        0.01          1.050        0.000
  WS02006228           JUNCTION        2.02          0.145        2.055
  YS02001759           JUNCTION        0.01          0.019        1.191
  YS02001757           JUNCTION        0.99          0.121        1.089
  
  
  *********************
  Node Flooding Summary
  *********************
  
  Flooding refers to all water that overflows a node, whether it ponds or not.
  --------------------------------------------------------------------------
                                                             Total   Maximum
                                 Maximum   Time of Max       Flood    Ponded
                        Hours       Rate    Occurrence      Volume     Depth
  Node                 Flooded       LPS   days hr:min    10^6 ltr    Meters
  --------------------------------------------------------------------------
  WS02006256              0.01    406.11      0  00:00       0.001     0.000
  XR-storage              0.20     55.84      0  05:13       0.031     0.000
  
  
  **********************
  Storage Volume Summary
  **********************
  
  --------------------------------------------------------------------------------------------------
                         Average     Avg  Evap Exfil       Maximum     Max    Time of Max    Maximum
                          Volume    Pcnt  Pcnt  Pcnt        Volume    Pcnt     Occurrence    Outflow
  Storage Unit           1000 m3    Full  Loss  Loss       1000 m3    Full    days hr:min        LPS
  --------------------------------------------------------------------------------------------------
  JK-storage               0.006       2     0     0         0.151      52       0  00:00     600.00
  CC-storage               0.178       1     0     0         0.545       3       0  04:44     400.00
  XR-storage               0.671      72     0     0         0.926     100       0  05:13     380.00
  
  
  ***********************
  Outfall Loading Summary
  ***********************
  
  -----------------------------------------------------------
                         Flow       Avg       Max       Total
                         Freq      Flow      Flow      Volume
  Outfall Node           Pcnt       LPS       LPS    10^6 ltr
  -----------------------------------------------------------
  WSC                   99.99    568.77    863.31      13.593
  3                     79.55    153.84    597.65       2.259
  4                     45.45     67.03    119.92       0.603
  5                      0.00      0.00      0.00       0.000
  -----------------------------------------------------------
  System                56.25    789.65   1447.69      16.455
  
  
  ********************
  Link Flow Summary
  ********************
  
  -----------------------------------------------------------------------------
                                 Maximum  Time of Max   Maximum    Max/    Max/
                                  |Flow|   Occurrence   |Veloc|    Full    Full
  Link                 Type          LPS  days hr:min     m/sec    Flow   Depth
  -----------------------------------------------------------------------------
  WS02003066WSF200     CONDUIT    494.24     0  02:42      2.72    0.08    0.22
  WS02006287WS02006284 CONDUIT    171.43     0  02:20      1.52    0.08    0.20
  WS02006284WS02006280 CONDUIT    171.53     0  02:20      1.77    0.07    0.18
  WS02006280WS02006229 CONDUIT    171.54     0  02:20      2.83    0.04    0.13
  WS02006229WS02006228 CONDUIT    510.68     0  02:32      1.02    1.69    1.00
  WS02006256WS02006235 CONDUIT    177.52     0  00:01      2.73    1.88    1.00
  WS02006253WS02006251 CONDUIT     48.25     0  07:32      0.46    0.14    0.92
  WS02006252WS02006251 CONDUIT    400.26     0  06:40      3.19    1.47    1.00
  WS02006251WS02006249 CONDUIT    428.62     0  02:29      1.23    1.24    0.89
  WS02006249WS02006248 CONDUIT    369.62     0  02:28      1.20    2.02    0.85
  WS02006248WS02006247 CONDUIT    363.68     0  02:28      1.17    0.79    0.89
  WS02006247WS02006245 CONDUIT    357.88     0  02:28      1.14    2.84    0.94
  WS02006245WS02006243 CONDUIT    349.73     0  02:28      1.18    1.03    0.95
  WS02006243WS02006242 CONDUIT    336.77     0  02:29      1.01    0.72    0.99
  WS02006242WS02006240 CONDUIT    337.33     0  05:10      0.92    1.34    1.00
  WS02006240WS02006239 CONDUIT    341.84     0  05:10      0.94    1.08    1.00
  WS02006239WS02006238 CONDUIT    343.28     0  05:10      0.91    1.10    1.00
  WS02006238WS02006235 CONDUIT    343.18     0  05:10      1.32    0.77    1.00
  WS02006235WS02006234 CONDUIT    387.03     0  05:14      1.04    4.08    1.00
  WS02006234WS02006232 CONDUIT    386.25     0  05:14      1.17    0.78    1.00
  WS02006232WS02006231 CONDUIT    386.22     0  05:14      1.05    0.81    0.97
  WS02006231WS02006230 CONDUIT    385.75     0  03:51      1.36    5.85    0.90
  WS02006230WS02006229 CONDUIT    396.17     0  03:50      1.03    8.82    1.00
  WS02006228WS02006109 CONDUIT    510.69     0  02:32      1.02    2.23    1.00
  WS02006116WS02004401 CONDUIT    502.33     0  02:35      0.75    0.69    0.81
  WS02006115WS02006116 CONDUIT    505.66     0  02:35      0.87    0.65    0.73
  WS02006113WS02006111 CONDUIT    530.46     0  02:33      2.42    0.64    0.45
  WS02006112WS02006115 CONDUIT    511.49     0  02:34      0.74    0.30    0.85
  WS02006111WS02006112 CONDUIT    515.80     0  02:34      1.44    0.25    0.67
  WS02006110WS02006113 CONDUIT    512.20     0  02:33      1.22    0.47    0.78
  WS02006109WS02006110 CONDUIT    511.89     0  02:32      1.02    0.98    1.00
  WS02004411WS02004412 CONDUIT    494.75     0  02:41      0.89    0.70    0.67
  WS02004401WS02004402 CONDUIT    501.15     0  02:37      0.72    0.60    0.84
  WS02004413WS02003067 CONDUIT    494.16     0  02:42      1.06    0.21    0.57
  WS02004412WS02004413 CONDUIT    494.36     0  02:41      0.78    0.33    0.75
  WS02004410WS02004411 CONDUIT    495.52     0  02:40      0.91    0.68    0.66
  WS02004409WS02004410 CONDUIT    497.13     0  02:39      0.95    0.64    0.64
  WS02004407WS02004409 CONDUIT    500.18     0  02:38      1.46    0.18    0.46
  WS02004406WS02004407 CONDUIT    500.37     0  02:38      1.00    0.22    0.61
  WS02004405WS02004406 CONDUIT    500.83     0  02:38      0.66    0.99    0.93
  WS02004404WS02004405 CONDUIT    500.64     0  02:38      0.66    4.90    0.94
  WS02004403WS02004404 CONDUIT    500.65     0  02:38      0.67    0.36    0.90
  WS02004402WS02004403 CONDUIT    500.91     0  02:37      0.70    0.72    0.86
  WS02004139WS02001211 CONDUIT    380.27     0  02:18      0.69    0.48    0.58
  WS02004138WS02004139 CONDUIT    380.00     0  02:12      2.94    0.08    0.43
  WS02003067WS02003066 CONDUIT    494.22     0  02:42      1.15    0.16    0.40
  WS02001213WS02003059 CONDUIT    386.40     0  02:17      0.68    0.64    0.75
  WS02001212WS02001213 CONDUIT    387.39     0  02:17      1.32    0.60    0.45
  WS02001211WS02001212 CONDUIT    387.52     0  02:17      0.78    0.30    0.63
  WS02003072WS02003073 CONDUIT    862.19     0  02:53      1.68    1.86    0.46
  WS02003069WS02003072 CONDUIT    862.61     0  02:53      1.58    0.42    0.49
  WS02003060WS02003069 CONDUIT    862.95     0  02:52      1.83    0.34    0.43
  WS02003059WS02003060 CONDUIT    385.14     0  02:18      0.94    0.25    0.64
  HS02004901HS02004770 CONDUIT      8.48     0  02:17      0.04    0.03    0.30
  HS02004876HS02004881 CONDUIT     28.49     0  02:20      0.49    0.30    0.08
  HS02004870HS02004876 CONDUIT     22.60     0  02:20      0.34    0.01    0.09
  HS02004842HS02004848 CONDUIT      4.72     0  02:32      0.03    0.00    0.27
  HS02004837HS02004842 CONDUIT      4.87     0  02:33      0.41    0.00    0.28
  HS02004830HS02004837 CONDUIT     21.02     0  02:19      0.42    0.02    0.07
  HS02004824HS02004830 CONDUIT     21.16     0  02:20      0.46    0.03    0.07
  HS02004817HS02004824 CONDUIT     33.16     0  02:23      0.17    0.01    0.39
  HS02004770HS02004777 CONDUIT     43.30     0  02:16      0.20    0.08    0.31
  HS02004799HS02004480 CONDUIT    107.42     0  02:18      0.54    0.14    0.29
  HS02004792HS02004799 CONDUIT     98.20     0  02:17      0.62    0.06    0.23
  HS02004788HS02004792 CONDUIT     57.16     0  02:19      0.78    0.04    0.11
  HS02004785HS02004788 CONDUIT     42.83     0  02:19      0.47    0.32    0.13
  HS02004777HS02004785 CONDUIT     42.81     0  02:17      0.24    0.05    0.25
  HS02004480HS02004478 CONDUIT    126.84     0  02:19      0.89    0.53    0.20
  HS02004479HS02004480 CONDUIT     19.82     0  02:21      0.15    0.02    0.28
  HS02004862HS02004870 CONDUIT     16.41     0  02:21      0.43    0.02    0.05
  HS02004848HS02004852 CONDUIT      6.43     0  02:19      0.28    0.01    0.03
  HS02004856HS02004862 CONDUIT     11.00     0  02:20      0.31    0.01    0.05
  HS02004852HS02004856 CONDUIT      6.40     0  02:21      0.10    0.01    0.09
  HS02004802HS02004478 CONDUIT     45.49     0  02:23      0.28    0.04    0.24
  HS02004478WS02006287 CONDUIT    171.44     0  02:20      1.22    0.05    0.16
  HS02004817HS02004807 CONDUIT     34.14     0  02:25      0.10    0.02    0.49
  HS02004807HS02004802 CONDUIT     45.26     0  02:22      0.23    0.09    0.28
  YS02001759YS02001757 CONDUIT    211.87     0  03:14      0.27    0.15    1.00
  YS02001762YS02001759 CONDUIT    132.91     0  03:16      0.18    0.15    0.98
  YS02001765YS02001762 CONDUIT    137.92     0  03:11      0.23    0.13    0.94
  YS02001770YS02001767 CONDUIT    120.29     0  03:13      0.31    0.48    0.87
  YS02001774YS02001770 CONDUIT     42.56     0  03:14      0.13    0.03    0.88
  YS02001779YS02001774 CONDUIT     41.04     0  03:12      0.08    0.02    0.80
  YS02001649YS02001757 CONDUIT    345.67     0  03:18      0.44    0.21    0.99
  YS02001767YS02001765 CONDUIT    127.89     0  03:12      0.25    0.16    0.89
  YS02006561YS02001783 CONDUIT    266.04     0  02:58      1.71    0.14    0.35
  YS02001783YS02001784 CONDUIT    266.04     0  02:58      1.17    0.37    0.46
  YS02001784YS02001785 CONDUIT    267.09     0  02:59      1.24    0.62    0.44
  YS02001788YS02001790 CONDUIT    267.21     0  02:59      1.80    0.20    0.34
  YS02001790YS02001791 CONDUIT    267.36     0  02:59      2.07    0.29    0.31
  YS02001791YS02001793 CONDUIT    270.24     0  02:51      4.17    0.12    0.20
  YS02001910YS02001907 CONDUIT     82.64     0  03:01      0.49    0.05    0.70
  YS02001786YS02001788 CONDUIT    267.14     0  02:59      1.66    0.51    0.36
  YS02001915YS02001910 CONDUIT     82.57     0  03:00      0.44    0.04    0.49
  YS02001918YS02001915 CONDUIT     28.03     0  03:03      0.44    0.02    0.23
  YS02001923YS02001920 CONDUIT     25.20     0  03:02      0.41    0.01    0.13
  YS02001926YS02001923 CONDUIT     25.16     0  03:02      0.45    0.04    0.12
  YS02001929YS02001926 CONDUIT     25.17     0  03:01      0.48    0.01    0.12
  YS02001920YS02001918 CONDUIT     28.05     0  03:03      0.43    0.03    0.14
  YS02001629YS02163301 CONDUIT     89.40     0  03:09      0.13    0.11    0.83
  YS02001619YS02001622 CONDUIT     71.16     0  03:12      0.62    0.10    0.45
  YS02001622YS02001625 CONDUIT     80.01     0  03:12      0.23    0.04    0.61
  YS02001625YS02001629 CONDUIT     90.03     0  03:14      0.23    0.04    0.59
  YS02163301YS02001633 CONDUIT     77.85     0  03:15      0.11    0.07    0.88
  YS02163601YS02164001 CONDUIT    140.49     0  03:10      0.19    0.12    0.93
  YS02164001YS02001641 CONDUIT    131.47     0  03:11      0.18    0.18    0.92
  YS02001641YS02001644 CONDUIT    135.02     0  03:09      0.18    0.44    0.93
  YS02001647YS02001649 CONDUIT    213.46     0  03:10      0.30    0.11    0.86
  YS02006553YS02006556 CONDUIT    181.86     0  03:02      0.28    0.16    0.78
  YS02006556YS02006558 CONDUIT    182.03     0  03:03      0.27    0.14    0.81
  YSB6556YSB1171       CONDUIT     10.70     0  02:22      0.05    0.01    0.55
  YS02001907YS02006553 CONDUIT    181.65     0  03:02      0.23    0.21    0.89
  YS02006558YS02006561 CONDUIT    266.04     0  02:58      2.20    0.59    0.44
  YS02001633YS02163601 CONDUIT    140.82     0  03:14      0.19    0.15    0.93
  YS02001644YS02001647 CONDUIT    196.07     0  03:16      0.29    0.12    0.84
  YS02001745YS02001748 CONDUIT     60.68     0  03:01      1.35    0.02    0.17
  YS02001748YS02001751 CONDUIT    204.16     0  03:15      1.04    0.10    0.37
  YS02001751YS02001754 CONDUIT    136.34     0  05:00      0.93    0.07    0.63
  YS02001754YS02001757 CONDUIT    195.82     0  03:16      0.33    0.08    0.90
  YS02001882YS02001884 CONDUIT      3.29     0  02:09      0.06    0.00    0.42
  YS02001884YS02001887 CONDUIT      9.42     0  02:08      0.05    0.01    0.52
  YS02001890YS02001895 CONDUIT    100.14     0  02:50      0.26    0.05    0.49
  YS02001895YS02001898 CONDUIT    100.02     0  02:50      0.46    0.17    0.35
  YS02001898YS02001901 CONDUIT     99.93     0  02:51      0.31    0.06    0.43
  YS02001901YS02001904 CONDUIT     99.58     0  02:53      0.27    0.15    0.48
  YS02001904YS02001907 CONDUIT     99.65     0  02:54      0.19    0.03    0.64
  YS02001887YS02001890 CONDUIT    100.43     0  02:47      0.22    0.17    0.57
  YS02001652YS02001649 CONDUIT    183.55     0  03:10      0.30    0.09    0.88
  YS02001655YS02001652 CONDUIT    110.70     0  03:09      1.00    0.05    0.65
  YS02001658YS02001655 CONDUIT    177.72     0  03:17      1.20    0.08    0.35
  YS02001661YS02001658 CONDUIT     71.50     0  02:48      1.38    0.03    0.18
  YS02001664YS02001661 CONDUIT     71.50     0  02:48      1.02    0.02    0.14
  YSB1154YSB6556       CONDUIT     10.60     0  02:18      0.19    0.02    0.44
  YSB1174YSB1171       CONDUIT      9.83     0  02:12      0.05    0.02    0.56
  YSB1171HS02004479    CONDUIT     19.65     0  02:20      0.54    0.01    0.43
  HS02004881HS02006253 CONDUIT     31.92     0  02:19      1.54    0.01    0.24
  YS02001793JiankangQianchi CONDUIT    271.05     0  02:51     12.66    0.02    0.55
  YS02001757CaochengTiaoxuchi CONDUIT    443.87     0  03:07      1.04    0.19    0.60
  WSF200WS02003060     CONDUIT    494.17     0  02:42      1.75    0.11    0.32
  1                    CONDUIT    863.31     0  02:54      3.20    0.30    0.38
  2                    CONDUIT    119.92     0  02:50      5.10    0.29    0.37
  3                    CONDUIT    597.65     0  00:00     10.05    0.95    0.86
  4                    CONDUIT      0.00     0  00:00      0.00    0.00    0.00
  CC-Pump-1            PUMP       200.00     0  02:27              1.00
  CC-Pump-2            PUMP       200.00     0  02:27              1.00
  JK-Pump-1            PUMP       300.00     0  00:00              1.00
  JK-Pump-2            PUMP       300.00     0  00:00              1.00
  XR-Pump-1            PUMP        95.00     0  00:00              1.00
  XR-Pump-2            PUMP        95.00     0  00:00              1.00
  XR-Pump-3            PUMP        95.00     0  00:20              1.00
  XR-Pump-4            PUMP        95.00     0  00:50              1.00
  
  
  ***************************
  Flow Classification Summary
  ***************************
  
  -------------------------------------------------------------------------------------
                      Adjusted    ---------- Fraction of Time in Flow Class ---------- 
                       /Actual         Up    Down  Sub   Sup   Up    Down  Norm  Inlet 
  Conduit               Length    Dry  Dry   Dry   Crit  Crit  Crit  Crit  Ltd   Ctrl  
  -------------------------------------------------------------------------------------
  WS02003066WSF200        1.00   0.06  0.02  0.00  0.00  0.92  0.00  0.00  0.68  0.00
  WS02006287WS02006284    1.00   0.04  0.02  0.00  0.67  0.27  0.00  0.00  0.78  0.00
  WS02006284WS02006280    1.00   0.04  0.00  0.00  0.00  0.00  0.00  0.96  0.00  0.00
  WS02006280WS02006229    1.00   0.04  0.00  0.00  0.00  0.00  0.00  0.96  0.00  0.00
  WS02006229WS02006228    1.00   0.00  0.00  0.00  0.98  0.00  0.00  0.02  0.00  0.00
  WS02006256WS02006235    1.00   0.00  0.00  0.00  1.00  0.00  0.00  0.00  0.00  0.00
  WS02006253WS02006251    1.00   0.03  0.01  0.00  0.96  0.00  0.00  0.00  0.00  0.00
  WS02006252WS02006251    1.00   0.08  0.00  0.00  0.00  0.00  0.91  0.00  0.00  0.00
  WS02006251WS02006249    1.00   0.00  0.00  0.00  1.00  0.00  0.00  0.00  0.31  0.00
  WS02006249WS02006248    1.00   0.00  0.02  0.00  0.88  0.00  0.10  0.00  0.00  0.00
  WS02006248WS02006247    1.00   0.02  0.00  0.00  0.97  0.00  0.00  0.01  0.21  0.00
  WS02006247WS02006245    1.00   0.02  0.00  0.00  0.96  0.00  0.00  0.02  0.00  0.00
  WS02006245WS02006243    1.00   0.02  0.00  0.00  0.93  0.00  0.00  0.05  0.02  0.00
  WS02006243WS02006242    1.00   0.01  0.01  0.00  0.98  0.00  0.00  0.00  0.29  0.00
  WS02006242WS02006240    1.00   0.01  0.00  0.00  0.99  0.00  0.00  0.00  0.00  0.00
  WS02006240WS02006239    1.00   0.00  0.00  0.00  0.95  0.00  0.00  0.05  0.02  0.00
  WS02006239WS02006238    1.00   0.00  0.00  0.00  1.00  0.00  0.00  0.00  0.00  0.00
  WS02006238WS02006235    1.00   0.00  0.00  0.00  1.00  0.00  0.00  0.00  0.00  0.00
  WS02006235WS02006234    1.00   0.00  0.00  0.00  0.94  0.00  0.06  0.00  0.00  0.00
  WS02006234WS02006232    1.00   0.00  0.00  0.00  1.00  0.00  0.00  0.00  0.05  0.00
  WS02006232WS02006231    1.00   0.00  0.00  0.00  0.99  0.00  0.01  0.00  0.00  0.00
  WS02006231WS02006230    1.00   0.00  0.00  0.00  0.55  0.00  0.45  0.00  0.00  0.00
  WS02006230WS02006229    1.00   0.00  0.00  0.00  0.98  0.00  0.00  0.02  0.01  0.00
  WS02006228WS02006109    1.00   0.00  0.00  0.00  0.99  0.00  0.00  0.00  0.00  0.00
  WS02006116WS02004401    1.00   0.02  0.00  0.00  0.98  0.00  0.00  0.00  0.00  0.00
  WS02006115WS02006116    1.00   0.02  0.00  0.00  0.96  0.00  0.00  0.01  0.01  0.00
  WS02006113WS02006111    1.00   0.02  0.00  0.00  0.00  0.98  0.00  0.00  0.13  0.00
  WS02006112WS02006115    1.00   0.02  0.00  0.00  0.98  0.00  0.00  0.00  0.00  0.00
  WS02006111WS02006112    1.00   0.02  0.00  0.00  0.98  0.00  0.00  0.00  0.98  0.00
  WS02006110WS02006113    1.00   0.02  0.00  0.00  0.98  0.00  0.00  0.00  0.00  0.00
  WS02006109WS02006110    1.00   0.00  0.02  0.00  0.98  0.00  0.00  0.00  0.00  0.00
  WS02004411WS02004412    1.00   0.05  0.00  0.00  0.95  0.00  0.00  0.00  0.00  0.00
  WS02004401WS02004402    1.00   0.02  0.00  0.00  0.98  0.00  0.00  0.00  0.00  0.00
  WS02004413WS02003067    1.00   0.06  0.01  0.00  0.00  0.00  0.93  0.00  0.00  0.00
  WS02004412WS02004413    1.00   0.06  0.00  0.00  0.94  0.00  0.00  0.00  0.03  0.00
  WS02004410WS02004411    1.00   0.05  0.00  0.00  0.95  0.00  0.00  0.00  0.01  0.00
  WS02004409WS02004410    1.00   0.05  0.00  0.00  0.95  0.00  0.00  0.00  0.00  0.00
  WS02004407WS02004409    1.00   0.05  0.00  0.00  0.94  0.00  0.00  0.00  0.80  0.00
  WS02004406WS02004407    1.00   0.00  0.05  0.00  0.95  0.00  0.00  0.00  0.00  0.00
  WS02004405WS02004406    1.00   0.00  0.00  0.00  1.00  0.00  0.00  0.00  0.02  0.00
  WS02004404WS02004405    1.00   0.00  0.00  0.00  1.00  0.00  0.00  0.00  0.00  0.00
  WS02004403WS02004404    1.00   0.00  0.02  0.00  0.98  0.00  0.00  0.00  0.02  0.00
  WS02004402WS02004403    1.00   0.02  0.00  0.00  0.98  0.00  0.00  0.00  0.00  0.00
  WS02004139WS02001211    1.00   0.00  0.00  0.00  0.99  0.00  0.01  0.00  0.00  0.00
  WS02004138WS02004139    1.00   0.00  0.00  0.00  0.98  0.01  0.00  0.00  1.00  0.00
  WS02003067WS02003066    1.00   0.07  0.00  0.00  0.92  0.00  0.00  0.00  0.00  0.00
  WS02001213WS02003059    1.00   0.00  0.01  0.00  0.99  0.00  0.00  0.00  0.00  0.00
  WS02001212WS02001213    1.00   0.01  0.00  0.00  0.82  0.00  0.17  0.00  0.00  0.00
  WS02001211WS02001212    1.00   0.00  0.01  0.00  0.99  0.00  0.00  0.00  0.00  0.00
  WS02003072WS02003073    1.00   0.00  0.00  0.00  0.00  0.00  0.00  1.00  0.00  0.00
  WS02003069WS02003072    1.00   0.00  0.00  0.00  0.99  0.01  0.00  0.00  0.29  0.00
  WS02003060WS02003069    1.00   0.00  0.00  0.00  0.99  0.01  0.00  0.00  0.19  0.00
  WS02003059WS02003060    1.00   0.00  0.00  0.00  0.99  0.01  0.00  0.00  0.01  0.00
  HS02004901HS02004770    1.00   0.04  0.00  0.00  0.96  0.00  0.00  0.00  0.02  0.00
  HS02004876HS02004881    1.00   0.02  0.00  0.00  0.98  0.00  0.00  0.00  0.00  0.00
  HS02004870HS02004876    1.00   0.01  0.00  0.00  0.99  0.00  0.00  0.00  0.95  0.00
  HS02004842HS02004848    1.00   0.00  0.04  0.00  0.96  0.00  0.00  0.00  0.69  0.00
  HS02004837HS02004842    1.00   0.00  0.00  0.00  0.99  0.01  0.00  0.00  0.11  0.00
  HS02004830HS02004837    1.00   0.00  0.00  0.00  1.00  0.00  0.00  0.00  0.99  0.00
  HS02004824HS02004830    1.00   0.00  0.00  0.00  1.00  0.00  0.00  0.00  0.00  0.00
  HS02004817HS02004824    1.00   0.00  0.00  0.00  1.00  0.00  0.00  0.00  1.00  0.00
  HS02004770HS02004777    1.00   0.00  0.04  0.00  0.96  0.00  0.00  0.00  0.07  0.00
  HS02004799HS02004480    1.00   0.00  0.02  0.00  0.94  0.00  0.03  0.00  0.00  0.00
  HS02004792HS02004799    1.00   0.00  0.00  0.00  0.98  0.02  0.00  0.00  0.98  0.00
  HS02004788HS02004792    1.00   0.00  0.00  0.00  0.98  0.02  0.00  0.00  0.98  0.00
  HS02004785HS02004788    1.00   0.00  0.00  0.00  1.00  0.00  0.00  0.00  0.00  0.00
  HS02004777HS02004785    1.00   0.00  0.00  0.00  1.00  0.00  0.00  0.00  0.21  0.00
  HS02004480HS02004478    1.00   0.05  0.00  0.00  0.72  0.00  0.00  0.24  0.00  0.00
  HS02004479HS02004480    1.00   0.02  0.00  0.00  0.98  0.00  0.00  0.00  0.16  0.00
  HS02004862HS02004870    1.00   0.00  0.00  0.00  1.00  0.00  0.00  0.00  0.06  0.00
  HS02004848HS02004852    1.00   0.04  0.00  0.00  0.96  0.00  0.00  0.00  0.70  0.00
  HS02004856HS02004862    1.00   0.00  0.07  0.00  0.93  0.00  0.00  0.00  0.74  0.00
  HS02004852HS02004856    1.00   0.04  0.01  0.00  0.95  0.00  0.00  0.00  0.83  0.00
  HS02004802HS02004478    1.00   0.04  0.01  0.00  0.95  0.00  0.00  0.00  0.01  0.00
  HS02004478WS02006287    1.00   0.05  0.00  0.00  0.90  0.04  0.00  0.00  0.81  0.00
  HS02004817HS02004807    1.00   0.00  0.04  0.00  0.96  0.00  0.00  0.00  0.00  0.00
  HS02004807HS02004802    1.00   0.04  0.00  0.00  0.95  0.00  0.00  0.00  0.01  0.00
  YS02001759YS02001757    1.00   0.00  0.00  0.00  1.00  0.00  0.00  0.00  0.17  0.00
  YS02001762YS02001759    1.00   0.00  0.00  0.00  1.00  0.00  0.00  0.00  0.04  0.00
  YS02001765YS02001762    1.00   0.00  0.00  0.00  1.00  0.00  0.00  0.00  0.22  0.00
  YS02001770YS02001767    1.00   0.00  0.00  0.00  1.00  0.00  0.00  0.00  0.00  0.00
  YS02001774YS02001770    1.00   0.00  0.05  0.00  0.95  0.00  0.00  0.00  0.07  0.00
  YS02001779YS02001774    1.00   0.00  0.00  0.00  1.00  0.00  0.00  0.00  0.27  0.00
  YS02001649YS02001757    1.00   0.00  0.00  0.00  1.00  0.00  0.00  0.00  0.19  0.00
  YS02001767YS02001765    1.00   0.00  0.00  0.00  1.00  0.00  0.00  0.00  0.01  0.00
  YS02006561YS02001783    1.00   0.07  0.00  0.00  0.00  0.93  0.00  0.00  0.73  0.00
  YS02001783YS02001784    1.00   0.00  0.07  0.00  0.93  0.00  0.00  0.00  0.00  0.00
  YS02001784YS02001785    1.00   0.00  0.00  0.00  1.00  0.00  0.00  0.00  0.25  0.00
  YS02001788YS02001790    1.00   0.00  0.00  0.00  0.07  0.93  0.00  0.00  0.81  0.00
  YS02001790YS02001791    1.00   0.00  0.00  0.00  0.02  0.98  0.00  0.00  0.49  0.00
  YS02001791YS02001793    1.00   0.00  0.00  0.00  0.00  1.00  0.00  0.00  0.00  0.00
  YS02001910YS02001907    1.00   0.00  0.00  0.00  0.98  0.00  0.00  0.02  0.13  0.00
  YS02001786YS02001788    1.00   0.00  0.00  0.00  0.08  0.92  0.00  0.00  0.00  0.00
  YS02001915YS02001910    1.00   0.00  0.00  0.00  1.00  0.00  0.00  0.00  0.24  0.00
  YS02001918YS02001915    1.00   0.00  0.01  0.00  0.99  0.00  0.00  0.00  0.82  0.00
  YS02001923YS02001920    1.00   0.00  0.00  0.00  1.00  0.00  0.00  0.00  1.00  0.00
  YS02001926YS02001923    1.00   0.00  0.03  0.00  0.00  0.00  0.97  0.00  0.00  0.00
  YS02001929YS02001926    1.00   0.00  0.04  0.00  0.96  0.00  0.00  0.00  0.87  0.00
  YS02001920YS02001918    1.00   0.00  0.01  0.00  0.99  0.00  0.00  0.00  0.00  0.00
  YS02001629YS02163301    1.00   0.06  0.00  0.00  0.94  0.00  0.00  0.00  0.00  0.00
  YS02001619YS02001622    1.00   0.04  0.00  0.00  0.96  0.00  0.00  0.00  0.00  0.00
  YS02001622YS02001625    1.00   0.04  0.00  0.00  0.96  0.00  0.00  0.00  0.13  0.00
  YS02001625YS02001629    1.00   0.04  0.03  0.00  0.91  0.00  0.01  0.00  0.00  0.00
  YS02163301YS02001633    1.00   0.00  0.06  0.00  0.94  0.00  0.00  0.00  0.00  0.00
  YS02163601YS02164001    1.00   0.00  0.03  0.00  0.97  0.00  0.00  0.00  0.00  0.00
  YS02164001YS02001641    1.00   0.01  0.02  0.00  0.97  0.00  0.00  0.00  0.07  0.00
  YS02001641YS02001644    1.00   0.00  0.01  0.00  0.99  0.00  0.00  0.00  0.00  0.00
  YS02001647YS02001649    1.00   0.00  0.07  0.00  0.93  0.00  0.00  0.00  0.01  0.00
  YS02006553YS02006556    1.00   0.02  0.00  0.00  0.98  0.00  0.00  0.00  0.03  0.00
  YS02006556YS02006558    1.00   0.00  0.01  0.00  0.99  0.00  0.00  0.00  0.00  0.00
  YSB6556YSB1171          1.00   0.02  0.02  0.00  0.96  0.00  0.00  0.00  0.00  0.00
  YS02001907YS02006553    1.00   0.00  0.02  0.00  0.98  0.00  0.00  0.00  0.00  0.00
  YS02006558YS02006561    1.00   0.07  0.00  0.00  0.00  0.93  0.00  0.00  0.72  0.00
  YS02001633YS02163601    1.00   0.00  0.01  0.00  0.99  0.00  0.00  0.00  0.20  0.00
  YS02001644YS02001647    1.00   0.00  0.07  0.00  0.93  0.00  0.00  0.00  0.00  0.00
  YS02001745YS02001748    1.00   0.00  0.00  0.00  0.09  0.13  0.00  0.79  0.13  0.00
  YS02001748YS02001751    1.00   0.00  0.00  0.00  0.98  0.02  0.00  0.00  0.57  0.00
  YS02001751YS02001754    1.00   0.00  0.00  0.00  0.92  0.00  0.00  0.07  0.02  0.00
  YS02001754YS02001757    1.00   0.00  0.00  0.00  0.99  0.01  0.00  0.00  0.27  0.00
  YS02001882YS02001884    1.00   0.06  0.00  0.00  0.94  0.00  0.00  0.00  0.00  0.00
  YS02001884YS02001887    1.00   0.03  0.01  0.00  0.96  0.00  0.00  0.00  0.00  0.00
  YS02001890YS02001895    1.00   0.00  0.06  0.00  0.94  0.00  0.00  0.00  0.00  0.00
  YS02001895YS02001898    1.00   0.06  0.00  0.00  0.93  0.00  0.01  0.00  0.00  0.00
  YS02001898YS02001901    1.00   0.06  0.00  0.00  0.94  0.00  0.00  0.00  0.02  0.00
  YS02001901YS02001904    1.00   0.06  0.00  0.00  0.94  0.00  0.00  0.00  0.00  0.00
  YS02001904YS02001907    1.00   0.00  0.06  0.00  0.94  0.00  0.00  0.00  0.00  0.00
  YS02001887YS02001890    1.00   0.00  0.00  0.00  0.98  0.00  0.02  0.00  0.00  0.00
  YS02001652YS02001649    1.00   0.00  0.00  0.00  1.00  0.00  0.00  0.00  0.26  0.00
  YS02001655YS02001652    1.00   0.00  0.00  0.00  0.92  0.00  0.00  0.07  0.02  0.00
  YS02001658YS02001655    1.00   0.00  0.05  0.00  0.92  0.03  0.00  0.00  0.60  0.00
  YS02001661YS02001658    1.00   0.05  0.00  0.00  0.10  0.85  0.00  0.00  0.74  0.00
  YS02001664YS02001661    1.00   0.04  0.00  0.00  0.80  0.16  0.00  0.00  0.86  0.00
  YSB1154YSB6556          1.00   0.04  0.00  0.00  0.96  0.00  0.00  0.00  0.02  0.00
  YSB1174YSB1171          1.00   0.03  0.01  0.00  0.97  0.00  0.00  0.00  0.00  0.00
  YSB1171HS02004479       1.00   0.02  0.00  0.00  0.97  0.00  0.00  0.00  0.13  0.00
  HS02004881HS02006253    1.00   0.03  0.00  0.00  0.74  0.01  0.00  0.23  0.52  0.00
  YS02001793JiankangQianchi    1.00   0.00  0.00  0.00  0.11  0.89  0.00  0.00  0.11  0.00
  YS02001757CaochengTiaoxuchi    1.00   0.00  0.08  0.00  0.92  0.00  0.00  0.00  0.00  0.00
  WSF200WS02003060        1.00   0.00  0.06  0.00  0.64  0.30  0.00  0.00  0.32  0.00
  1                       1.00   0.00  0.00  0.00  0.00  1.00  0.00  0.00  0.33  0.00
  2                       1.00   0.54  0.00  0.00  0.00  0.46  0.00  0.00  0.08  0.00
  3                       1.00   0.20  0.00  0.00  0.00  0.80  0.00  0.00  0.04  0.00
  4                       1.00   1.00  0.00  0.00  0.00  0.00  0.00  0.00  0.00  0.00
  
  
  *************************
  Conduit Surcharge Summary
  *************************
  
  ----------------------------------------------------------------------------
                                                           Hours        Hours 
                         --------- Hours Full --------   Above Full   Capacity
  Conduit                Both Ends  Upstream  Dnstream   Normal Flow   Limited
  ----------------------------------------------------------------------------
  WS02006229WS02006228        2.02      2.24      2.02      3.45         2.02
  WS02006256WS02006235        5.45      5.45      7.68      2.01         0.01
  WS02006252WS02006251        1.79      1.79      2.47      2.29         0.01
  WS02006251WS02006249        0.01      0.01      0.01      1.83         0.01
  WS02006249WS02006248        0.01      0.01      0.01      3.54         0.01
  WS02006247WS02006245        0.01      0.01      0.01      4.15         0.01
  WS02006245WS02006243        0.01      0.01      0.01      0.06         0.01
  WS02006243WS02006242        0.01      0.01      1.68      0.01         0.01
  WS02006242WS02006240        0.13      0.13      2.06      2.61         0.01
  WS02006240WS02006239        0.64      0.64      0.93      0.05         0.01
  WS02006239WS02006238        1.86      1.87      1.99      0.28         0.26
  WS02006238WS02006235        1.83      1.83      2.35      0.01         0.01
  WS02006235WS02006234        0.15      0.15      1.53      5.45         0.01
  WS02006234WS02006232        0.70      0.70      2.39      0.01         0.01
  WS02006232WS02006231        0.01      0.01      2.39      0.01         0.01
  WS02006231WS02006230        0.01      0.01      0.01      5.49         0.01
  WS02006230WS02006229        2.69      3.21      2.69      5.65         2.69
  WS02006228WS02006109        2.12      2.53      2.12      4.55         2.12
  WS02006112WS02006115        0.01      0.01      0.09      0.01         0.01
  WS02006111WS02006112        0.01      0.01      3.61      0.01         0.01
  WS02006110WS02006113        0.01      0.01      2.39      0.01         0.01
  WS02006109WS02006110        0.01      0.01      2.53      0.01         0.01
  WS02004404WS02004405        0.01      0.01      0.01      5.56         0.01
  WS02003072WS02003073        0.01      0.01      0.01      4.42         0.01
  YS02001759YS02001757        0.01      0.01      0.99      0.01         0.01
  YS02001762YS02001759        0.01      0.01      0.01      0.01         0.01
  YS02001649YS02001757        0.01      0.01      0.99      0.01         0.01
  YS02001754YS02001757        0.01      0.01      0.99      0.01         0.01
  YS02001793JiankangQianchi        0.01      0.01      0.18      0.01         0.01
  YS02001757CaochengTiaoxuchi        0.01      0.01      0.99      0.01         0.01
  3                           0.01      0.01      0.01      0.01         0.01
  
  
  ***************
  Pumping Summary
  ***************
  
  ---------------------------------------------------------------------------------------------------------
                                                  Min       Avg       Max     Total     Power    % Time Off
                        Percent   Number of      Flow      Flow      Flow    Volume     Usage    Pump Curve
  Pump                 Utilized   Start-Ups       LPS       LPS       LPS  10^6 ltr     Kw-hr    Low   High
  ---------------------------------------------------------------------------------------------------------
  CC-Pump-1               57.29           4      0.00    135.23    200.00     2.157      9.78    0.0  100.0
  CC-Pump-2               61.55           3      0.00    151.45    200.00     2.513     11.26    0.0  100.0
  JK-Pump-1               91.50           2      0.00    118.15    300.00     2.131     41.17    0.0    0.0
  JK-Pump-2               80.84           8      0.00    118.12    300.00     1.915     36.92    0.0    0.0
  XR-Pump-1               87.22           7      0.00     69.95     95.00     1.710     19.06    0.0    0.0
  XR-Pump-2               80.85           6      0.00     73.56     95.00     1.653     17.32    0.0    0.0
  XR-Pump-3               76.58           7      0.00     70.93     95.00     1.567     16.64    0.0    0.0
  XR-Pump-4               85.09           7      0.00     68.80     95.00     1.624     17.64    0.0    0.0
  

  Analysis begun on:  Tue Dec 21 15:40:10 2021
  Analysis ended on:  Tue Dec 21 15:40:12 2021
  Total elapsed time: 00:00:02