
  EPA STORM WATER MANAGEMENT MODEL - VERSION 5.1 (Build 5.3.0.dev0)
  --------------------------------------------------------------

  WARNING 04: minimum elevation drop used for Conduit WS02004404WS02004405
  WARNING 03: negative offset ignored for Link YS02001904YS02001907
  
  *********************************************************
  NOTE: The summary statistics displayed in this report are
  based on results found at every computational time step,  
  not just on results from each reporting time step.
  *********************************************************
  
  ****************
  Analysis Options
  ****************
  Flow Units ............... LPS
  Process Models:
    Rainfall/Runoff ........ YES
    RDII ................... NO
    Snowmelt ............... NO
    Groundwater ............ NO
    Flow Routing ........... YES
    Ponding Allowed ........ NO
    Water Quality .......... NO
  Infiltration Method ...... HORTON
  Flow Routing Method ...... DYNWAVE
  Surcharge Method ......... EXTRAN
  Starting Date ............ 08/28/2015 08:00:00
  Ending Date .............. 08/28/2015 15:50:00
  Antecedent Dry Days ...... 8.0
  Report Time Step ......... 00:01:00
  Wet Time Step ............ 00:01:00
  Dry Time Step ............ 00:01:00
  Routing Time Step ........ 5.00 sec
  Variable Time Step ....... YES
  Maximum Trials ........... 8
  Number of Threads ........ 4
  Head Tolerance ........... 0.001500 m
  
  
  **************************        Volume         Depth
  Runoff Quantity Continuity     hectare-m            mm
  **************************     ---------       -------
  Total Precipitation ......         1.967         4.306
  Evaporation Loss .........         0.000         0.000
  Infiltration Loss ........         0.486         1.064
  Surface Runoff ...........         0.673         1.473
  Final Storage ............         0.809         1.770
  Continuity Error (%) .....        -0.017
  
  
  **************************        Volume        Volume
  Flow Routing Continuity        hectare-m      10^6 ltr
  **************************     ---------     ---------
  Dry Weather Inflow .......         0.616         6.165
  Wet Weather Inflow .......         0.672         6.721
  Groundwater Inflow .......         0.000         0.000
  RDII Inflow ..............         0.000         0.000
  External Inflow ..........         0.102         1.024
  External Outflow .........         1.486        14.857
  Flooding Loss ............         0.000         0.000
  Evaporation Loss .........         0.000         0.000
  Exfiltration Loss ........         0.000         0.000
  Initial Stored Volume ....         0.076         0.761
  Final Stored Volume ......         0.200         1.998
  Continuity Error (%) .....       -14.895
  
  
  *************************
  Highest Continuity Errors
  *************************
  Node JK-storage (-63.99%)
  Node HS02004842 (36.00%)
  Node YS02001884 (30.31%)
  Node YS02001774 (15.52%)
  Node YSB1171 (10.21%)
  
  
  ***************************
  Time-Step Critical Elements
  ***************************
  Link WS02006252WS02006251 (72.27%)
  Link 3 (20.22%)
  Link WS02006280WS02006229 (2.11%)
  Link WS02006238WS02006235 (1.78%)
  
  
  ********************************
  Highest Flow Instability Indexes
  ********************************
  Link WS02006113WS02006111 (43)
  Link WS02006111WS02006112 (23)
  Link YS02001754YS02001757 (3)
  Link YS02001751YS02001754 (3)
  Link YS02001762YS02001759 (2)
  
  
  *************************
  Routing Time Step Summary
  *************************
  Minimum Time Step           :     0.50 sec
  Average Time Step           :     0.89 sec
  Maximum Time Step           :     5.00 sec
  Percent in Steady State     :    -0.00
  Average Iterations per Step :     2.03
  Percent Not Converging      :     0.12
  
  
  ***************************
  Subcatchment Runoff Summary
  ***************************
  
  ------------------------------------------------------------------------------------------------------------------------------
                            Total      Total      Total      Total     Imperv       Perv      Total       Total     Peak  Runoff
                           Precip      Runon       Evap      Infil     Runoff     Runoff     Runoff      Runoff   Runoff   Coeff
  Subcatchment                 mm         mm         mm         mm         mm         mm         mm    10^6 ltr      LPS
  ------------------------------------------------------------------------------------------------------------------------------
  sub0                       4.31       0.00       0.00       0.30       2.74       0.00       2.74        0.00     0.83   0.636
  sub1                       4.31       0.00       0.00       0.47       2.58       0.00       2.58        0.02     4.25   0.599
  sub2                       4.31       0.00       0.00       1.59       1.81       0.00       1.81        0.02     3.74   0.420
  sub3                       4.31       0.00       0.00       1.59       1.78       0.00       1.78        0.04     7.64   0.413
  sub4                       4.31       0.00       0.00       0.47       2.45       0.00       2.45        0.05     8.52   0.569
  sub5                       4.31       0.00       0.00       0.30       2.69       0.00       2.69        0.03     7.56   0.626
  sub7                       4.31       0.00       0.00       0.39       2.66       0.00       2.66        0.01     2.69   0.619
  sub8                       4.31       0.00       0.00       0.39       2.66       0.00       2.66        0.02     4.73   0.617
  sub9                       4.31       0.00       0.00       0.39       2.65       0.00       2.65        0.01     3.50   0.616
  sub10                      4.31       0.00       0.00       0.34       2.67       0.00       2.67        0.03     7.55   0.621
  sub11                      4.31       0.00       0.00       0.34       2.69       0.00       2.69        0.03     8.91   0.624
  sub12                      4.31       0.00       0.00       0.56       2.56       0.00       2.56        0.02     7.63   0.594
  sub14                      4.31       0.00       0.00       0.39       2.65       0.00       2.65        0.03     6.84   0.616
  sub15                      4.31       0.00       0.00       1.29       2.04       0.00       2.04        0.04     9.27   0.473
  sub16                      4.31       0.00       0.00       1.42       1.97       0.00       1.97        0.02     6.68   0.457
  sub17                      4.31       0.00       0.00       1.38       1.99       0.00       1.99        0.02     5.39   0.463
  sub22                      4.31       0.00       0.00       1.85       1.67       0.00       1.67        0.11    30.51   0.387
  sub23                      4.31       0.00       0.00       1.59       1.84       0.00       1.84        0.09    26.01   0.428
  sub60                      4.31       0.00       0.00       0.52       1.61       0.00       1.61        0.49    41.47   0.373
  sub61                      4.31       0.00       0.00       0.73       1.77       0.00       1.77        0.55    52.87   0.411
  sub62                      4.31       0.00       0.00       0.34       1.88       0.00       1.88        0.58    53.89   0.437
  sub63                      4.31       0.00       0.00       1.25       1.59       0.00       1.59        0.48    49.53   0.370
  sub64                      4.31       0.00       0.00       0.65       1.53       0.00       1.53        0.47    39.31   0.356
  sub65                      4.31       0.00       0.00       0.56       1.55       0.00       1.55        0.48    39.81   0.359
  sub66                      4.31       0.00       0.00       1.25       1.35       0.00       1.35        0.41    36.31   0.313
  sub67                      4.31       0.00       0.00       0.34       2.12       0.00       2.12        0.65    69.78   0.493
  sub68                      4.31       0.00       0.00       0.60       1.89       0.00       1.89        0.58    58.60   0.440
  sub69                      4.31       0.00       0.00       0.65       2.10       0.00       2.10        0.49    58.79   0.488
  sub70                      4.31       2.14       0.00       2.19       2.42       0.00       2.42        0.55    43.75   0.376
  sub71                      4.31       0.00       0.00       0.34       1.78       0.00       1.78        0.42    37.41   0.413
  sub72                      4.31       0.00       0.00       0.30       1.18       0.00       1.18        0.24    16.89   0.274
  sub73                      4.31       2.36       0.00       2.27       2.36       0.00       2.36        0.55    37.29   0.354
  sub74                      4.31       0.00       0.00       3.23       0.64       0.00       0.64        0.26    32.93   0.148
  
  
  ******************
  Node Depth Summary
  ******************
  
  ---------------------------------------------------------------------------------
                                 Average  Maximum  Maximum  Time of Max    Reported
                                   Depth    Depth      HGL   Occurrence   Max Depth
  Node                 Type       Meters   Meters   Meters  days hr:min      Meters
  ---------------------------------------------------------------------------------
  WS02001211           JUNCTION     0.64     0.77     5.60     0  05:20        0.77
  WS02001212           JUNCTION     0.37     0.47     5.54     0  05:21        0.47
  WS02001213           JUNCTION     0.59     0.71     5.47     0  05:21        0.71
  WS02003069           JUNCTION     0.41     0.51     5.09     0  02:54        0.51
  WS02003072           JUNCTION     0.48     0.57     4.94     0  02:54        0.57
  WS02003073           JUNCTION     0.29     0.35     4.41     0  02:55        0.35
  WS02003060           JUNCTION     0.37     0.45     5.38     0  02:53        0.45
  WS02003066           JUNCTION     0.22     0.28     5.83     0  02:52        0.28
  WS02003059           JUNCTION     0.65     0.76     5.45     0  05:22        0.76
  WS02003067           JUNCTION     0.56     0.67     5.99     0  02:51        0.67
  WS02004401           JUNCTION     0.65     0.79     6.79     0  02:48        0.79
  WS02004402           JUNCTION     0.68     0.82     6.78     0  02:48        0.82
  WS02004403           JUNCTION     0.70     0.84     6.77     0  02:48        0.84
  WS02004404           JUNCTION     0.78     0.91     6.76     0  02:48        0.91
  WS02004406           JUNCTION     0.78     0.91     6.74     0  02:48        0.91
  WS02004409           JUNCTION     0.47     0.61     6.38     0  02:51        0.61
  WS02004410           JUNCTION     0.49     0.62     6.34     0  02:51        0.62
  WS02004411           JUNCTION     0.50     0.64     6.32     0  02:51        0.64
  WS02004412           JUNCTION     0.52     0.65     6.29     0  02:51        0.65
  WS02004413           JUNCTION     0.68     0.81     6.28     0  02:51        0.81
  WS02004405           JUNCTION     0.77     0.91     6.76     0  02:48        0.91
  WS02006109           JUNCTION     0.72     0.90     7.51     0  02:43        0.90
  WS02006110           JUNCTION     0.72     0.87     7.46     0  02:44        0.87
  WS02006111           JUNCTION     0.21     0.27     6.98     0  02:44        0.27
  WS02006112           JUNCTION     0.81     0.98     6.86     0  02:47        0.98
  WS02006113           JUNCTION     0.32     0.42     7.31     0  02:44        0.42
  WS02006115           JUNCTION     0.54     0.69     6.82     0  02:48        0.69
  WS02006116           JUNCTION     0.62     0.77     6.81     0  02:48        0.77
  WS02006230           JUNCTION     0.68     0.93     7.67     0  02:43        0.92
  WS02006231           JUNCTION     0.45     0.62     7.74     0  02:43        0.62
  WS02006232           JUNCTION     0.59     0.76     7.80     0  03:05        0.76
  WS02006234           JUNCTION     0.51     0.71     7.87     0  03:06        0.71
  WS02006235           JUNCTION     0.54     0.75     7.91     0  03:06        0.75
  WS02006238           JUNCTION     0.57     0.78     7.92     0  03:06        0.78
  WS02006240           JUNCTION     0.46     0.71     8.00     0  03:06        0.71
  WS02006242           JUNCTION     0.52     0.78     8.05     0  03:06        0.78
  WS02006243           JUNCTION     0.40     0.67     8.09     0  03:07        0.67
  WS02006245           JUNCTION     0.39     0.64     8.13     0  03:06        0.64
  WS02006247           JUNCTION     0.41     0.65     8.15     0  03:07        0.65
  WS02006248           JUNCTION     0.35     0.59     8.18     0  03:06        0.59
  WS02006249           JUNCTION     0.39     0.61     8.20     0  03:07        0.61
  WS02006239           JUNCTION     0.52     0.75     7.96     0  03:06        0.75
  WS02006251           JUNCTION     0.38     0.63     8.30     0  03:06        0.63
  WS02006252           JUNCTION     0.34     0.58     8.83     0  03:00        0.58
  WS02006253           JUNCTION     0.41     0.65     8.30     0  03:06        0.65
  WS02006256           JUNCTION     0.98     1.15     8.08     0  03:26        1.15
  WS02004138           JUNCTION     0.15     0.19     7.44     0  05:20        0.19
  WS02004407           JUNCTION     0.21     0.27     6.59     0  02:49        0.27
  WS02006228           JUNCTION     0.71     0.97     7.62     0  03:00        0.92
  WS02006229           JUNCTION     0.69     0.91     7.60     0  02:43        0.91
  WS02006280           JUNCTION     0.05     0.11     8.38     0  02:24        0.11
  WS02006284           JUNCTION     0.34     0.44     8.83     0  02:24        0.44
  WS02006287           JUNCTION     0.07     0.16     9.12     0  02:24        0.16
  WSF200               JUNCTION     0.21     0.28     5.51     0  02:51        0.28
  HS02004901           JUNCTION     0.10     0.19    10.01     0  02:22        0.19
  HS02004881           JUNCTION     0.00     0.02     9.05     0  02:23        0.02
  HS02004876           JUNCTION     0.03     0.09     9.12     0  02:23        0.09
  HS02004870           JUNCTION     0.01     0.03     9.32     0  02:23        0.03
  HS02004862           JUNCTION     0.01     0.03     9.42     0  02:25        0.03
  HS02004856           JUNCTION     0.07     0.09     9.52     0  02:24        0.09
  HS02004852           JUNCTION     0.00     0.02     9.53     0  02:25        0.02
  HS02004848           JUNCTION     0.00     0.02     9.62     0  02:22        0.02
  HS02004842           JUNCTION     0.32     0.35     9.62     0  02:21        0.35
  HS02004837           JUNCTION     0.02     0.04     9.62     0  02:22        0.04
  HS02004830           JUNCTION     0.03     0.05     9.52     0  02:22        0.05
  HS02004824           JUNCTION     0.02     0.03     9.43     0  02:26        0.03
  HS02004817           JUNCTION     0.42     0.49     9.34     0  02:24        0.49
  HS02004807           JUNCTION     0.10     0.16     9.33     0  02:24        0.16
  HS02004802           JUNCTION     0.14     0.20     9.33     0  02:24        0.20
  HS02004799           JUNCTION     0.09     0.20     9.41     0  02:22        0.20
  HS02004792           JUNCTION     0.02     0.07     9.59     0  02:21        0.07
  HS02004788           JUNCTION     0.02     0.05     9.95     0  02:23        0.05
  HS02004785           JUNCTION     0.03     0.10    10.00     0  02:22        0.10
  HS02004777           JUNCTION     0.13     0.21    10.01     0  02:22        0.21
  HS02004770           JUNCTION     0.09     0.18    10.01     0  02:22        0.18
  HS02004480           JUNCTION     0.06     0.15     9.39     0  02:22        0.15
  HS02004479           JUNCTION     0.09     0.19     9.39     0  02:23        0.19
  HS02004478           JUNCTION     0.04     0.09     9.32     0  02:23        0.09
  YS02001745           JUNCTION     0.06     0.09     7.60     0  03:01        0.09
  YS02001748           JUNCTION     0.07     0.14     7.21     0  03:11        0.14
  YS02001751           JUNCTION     0.20     0.34     7.22     0  03:05        0.34
  YS02001754           JUNCTION     0.45     0.62     7.23     0  03:10        0.62
  YS02001762           JUNCTION     0.65     0.82     7.22     0  03:08        0.82
  YS02001765           JUNCTION     0.60     0.77     7.22     0  03:06        0.77
  YS02001767           JUNCTION     0.57     0.73     7.22     0  03:08        0.73
  YS02001770           JUNCTION     0.56     0.72     7.22     0  03:07        0.72
  YS02001774           JUNCTION     0.63     0.79     7.22     0  03:07        0.79
  YS02001779           JUNCTION     0.38     0.53     7.22     0  03:07        0.53
  YS02001882           JUNCTION     0.23     0.34     7.05     0  03:00        0.34
  YS02001884           JUNCTION     0.32     0.44     7.05     0  03:01        0.44
  YS02001759           JUNCTION     0.68     0.85     7.22     0  03:03        0.85
  YS02001887           JUNCTION     0.40     0.52     7.05     0  03:01        0.52
  YS02001890           JUNCTION     0.43     0.55     7.05     0  03:00        0.55
  YS02001898           JUNCTION     0.20     0.30     7.04     0  03:01        0.30
  YS02001901           JUNCTION     0.32     0.43     7.04     0  03:01        0.43
  YS02001904           JUNCTION     0.30     0.41     7.04     0  03:01        0.41
  YS02001907           JUNCTION     0.63     0.75     7.04     0  03:01        0.75
  YS02001910           JUNCTION     0.42     0.53     7.04     0  03:01        0.53
  YS02001915           JUNCTION     0.22     0.32     7.04     0  03:00        0.32
  YS02001918           JUNCTION     0.06     0.07     7.14     0  03:04        0.07
  YS02001619           JUNCTION     0.17     0.29     7.22     0  03:03        0.29
  YS02001629           JUNCTION     0.51     0.67     7.22     0  03:06        0.67
  YS02001641           JUNCTION     0.61     0.78     7.22     0  03:05        0.78
  YS02001644           JUNCTION     0.62     0.79     7.22     0  03:06        0.78
  YS02001652           JUNCTION     0.46     0.63     7.22     0  03:06        0.62
  YS02001655           JUNCTION     0.23     0.37     7.22     0  03:07        0.37
  YS02001920           JUNCTION     0.15     0.17     7.18     0  03:03        0.17
  YS02001923           JUNCTION     0.05     0.06     7.32     0  03:02        0.06
  YS02001926           JUNCTION     0.11     0.14     7.58     0  03:02        0.14
  YS02001929           JUNCTION     0.05     0.06     7.76     0  03:01        0.06
  YS02001658           JUNCTION     0.06     0.10     7.24     0  02:53        0.10
  YS02001661           JUNCTION     0.13     0.17     7.57     0  02:53        0.17
  YS02001664           JUNCTION     0.05     0.09     8.01     0  02:53        0.09
  YS02001622           JUNCTION     0.19     0.32     7.22     0  03:03        0.31
  YS02001633           JUNCTION     0.60     0.76     7.22     0  03:07        0.76
  YS02001649           JUNCTION     0.66     0.83     7.22     0  03:05        0.82
  YS02001757           JUNCTION     0.78     0.96     7.22     0  03:07        0.96
  YS02001895           JUNCTION     0.20     0.30     7.05     0  03:01        0.30
  YS02001625           JUNCTION     0.46     0.62     7.22     0  03:04        0.61
  YS02163301           JUNCTION     0.54     0.70     7.22     0  03:05        0.70
  YS02163601           JUNCTION     0.65     0.82     7.22     0  03:05        0.82
  YS02164001           JUNCTION     0.59     0.76     7.22     0  03:05        0.76
  YS02001647           JUNCTION     0.45     0.61     7.22     0  03:05        0.61
  YSB1154              JUNCTION     0.23     0.33     9.39     0  02:22        0.33
  YSB6556              JUNCTION     0.12     0.22     9.39     0  02:22        0.22
  YSB1174              JUNCTION     0.18     0.28     9.39     0  02:22        0.28
  YSB1171              JUNCTION     0.38     0.49     9.39     0  02:23        0.49
  YS02006553           JUNCTION     0.63     0.75     7.04     0  03:01        0.75
  YS02006561           JUNCTION     0.11     0.17     6.83     0  03:00        0.17
  YS02006556           JUNCTION     0.61     0.72     7.03     0  03:00        0.72
  YS02006558           JUNCTION     0.65     0.77     7.03     0  03:00        0.77
  YS02001783           JUNCTION     0.19     0.29     6.43     0  03:01        0.29
  YS02001784           JUNCTION     0.22     0.32     6.39     0  03:01        0.32
  YS02001786           JUNCTION     0.19     0.28     6.31     0  03:01        0.28
  YS02001788           JUNCTION     0.13     0.20     6.18     0  03:02        0.20
  YS02001790           JUNCTION     0.16     0.24     5.89     0  03:02        0.24
  YS02001791           JUNCTION     0.11     0.16     5.63     0  03:02        0.16
  YS02001793           JUNCTION     0.07     0.11     4.94     0  03:02        0.11
  WS02004139           JUNCTION     0.58     0.71     5.62     0  05:20        0.71
  WSC                  OUTFALL      0.29     0.35     1.02     0  02:55        0.35
  3                    OUTFALL      0.06     0.14     6.14     0  03:26        0.14
  4                    OUTFALL      0.01     0.11     7.11     0  03:07        0.11
  5                    OUTFALL      0.00     0.00     5.00     0  00:00        0.00
  JK-storage           STORAGE      0.05     3.00     3.80     0  00:00        2.70
  CC-storage           STORAGE      0.01     0.06     7.06     0  04:10        0.06
  XR-storage           STORAGE      4.70     6.47     4.47     0  07:03        6.47
  
  
  *******************
  Node Inflow Summary
  *******************
  
  -------------------------------------------------------------------------------------------------
                                  Maximum  Maximum                  Lateral       Total        Flow
                                  Lateral    Total  Time of Max      Inflow      Inflow     Balance
                                   Inflow   Inflow   Occurrence      Volume      Volume       Error
  Node                 Type           LPS      LPS  days hr:min    10^6 ltr    10^6 ltr     Percent
  -------------------------------------------------------------------------------------------------
  WS02001211           JUNCTION      7.35   381.22     0  05:20       0.207        6.56       0.542
  WS02001212           JUNCTION      0.00   377.20     0  05:21           0        6.52       0.291
  WS02001213           JUNCTION      0.00   376.28     0  05:21           0         6.5       0.373
  WS02003069           JUNCTION      0.32   741.96     0  02:53     0.00902        13.2       0.214
  WS02003072           JUNCTION      0.00   741.66     0  02:54           0        13.1       0.267
  WS02003073           JUNCTION      1.82   743.41     0  02:54      0.0514        13.1       0.299
  WS02003060           JUNCTION     16.53   741.48     0  02:53       0.466        13.2       0.204
  WS02003066           JUNCTION      0.00   454.51     0  02:51           0        6.28       0.062
  WS02003059           JUNCTION      0.00   376.22     0  05:21           0        6.48       0.573
  WS02003067           JUNCTION      0.00   454.43     0  02:51           0        6.29       0.135
  WS02004401           JUNCTION      0.00   463.54     0  02:47           0        6.49       0.295
  WS02004402           JUNCTION      0.00   462.61     0  02:48           0        6.47       0.281
  WS02004403           JUNCTION      0.00   462.18     0  02:48           0        6.46       0.259
  WS02004404           JUNCTION      0.16   461.87     0  02:48     0.00457        6.44       0.199
  WS02004406           JUNCTION      0.00   461.84     0  02:48           0        6.41       0.486
  WS02004409           JUNCTION      0.00   461.56     0  02:49           0        6.38       0.216
  WS02004410           JUNCTION      0.00   459.10     0  02:49           0        6.36       0.248
  WS02004411           JUNCTION      0.00   457.12     0  02:50           0        6.35       0.259
  WS02004412           JUNCTION      0.00   455.70     0  02:50           0        6.33       0.286
  WS02004413           JUNCTION      0.00   454.80     0  02:51           0        6.31       0.432
  WS02004405           JUNCTION      0.04   461.81     0  02:48     0.00107        6.43       0.297
  WS02006109           JUNCTION      1.23   472.20     0  02:43      0.0347        6.58       0.295
  WS02006110           JUNCTION      0.00   472.26     0  02:43           0        6.57       0.266
  WS02006111           JUNCTION      0.00   486.63     0  02:44           0        6.54       0.052
  WS02006112           JUNCTION      5.39   478.21     0  02:44      0.0171        6.55       0.406
  WS02006113           JUNCTION      0.00   472.33     0  02:43           0        6.55       0.122
  WS02006115           JUNCTION      0.00   472.01     0  02:45           0        6.53       0.261
  WS02006116           JUNCTION      0.00   466.05     0  02:45           0        6.51       0.252
  WS02006230           JUNCTION     10.28   392.82     0  03:42        0.29        5.93       0.187
  WS02006231           JUNCTION      0.00   383.53     0  03:42           0        5.65       0.169
  WS02006232           JUNCTION      0.00   383.71     0  03:42           0        5.66       0.246
  WS02006234           JUNCTION      0.00   384.84     0  03:41           0        5.67       0.100
  WS02006235           JUNCTION      0.00   384.96     0  03:41           0        5.71       0.162
  WS02006238           JUNCTION      0.00   308.70     0  03:20           0         3.9       0.154
  WS02006240           JUNCTION      0.00   310.74     0  04:31           0        3.88       0.221
  WS02006242           JUNCTION      0.00   319.78     0  02:40           0        3.88       0.287
  WS02006243           JUNCTION      0.00   335.08     0  03:01           0        3.87      -0.115
  WS02006245           JUNCTION      0.00   340.34     0  03:01           0        3.87       0.202
  WS02006247           JUNCTION      0.00   346.88     0  03:00           0        3.88       0.136
  WS02006248           JUNCTION      0.00   353.38     0  03:00           0        3.88       0.066
  WS02006249           JUNCTION      0.00   410.85     0  03:06           0        4.05       0.210
  WS02006239           JUNCTION      0.00   308.25     0  04:31           0        3.89       0.227
  WS02006251           JUNCTION      0.08   412.83     0  03:01     0.00217        4.11       0.172
  WS02006252           JUNCTION      0.00   400.00     0  03:00           0        3.96       0.009
  WS02006253           JUNCTION      0.83    42.99     0  05:39     0.00222       0.155       1.554
  WS02006256           JUNCTION      0.00   403.21     0  03:26           0        3.44       0.076
  WS02004138           JUNCTION      0.00   379.93     0  05:20           0        6.38       0.083
  WS02004407           JUNCTION      0.00   461.66     0  02:49           0        6.38       0.097
  WS02006228           JUNCTION      0.00   470.96     0  02:43           0        6.56       0.201
  WS02006229           JUNCTION      0.00   470.98     0  02:43           0        6.57       0.164
  WS02006280           JUNCTION      0.00   124.62     0  02:24           0       0.658       0.011
  WS02006284           JUNCTION      0.10   124.62     0  02:24      0.0027       0.659       0.173
  WS02006287           JUNCTION      0.00   124.54     0  02:23           0       0.657       0.106
  WSF200               JUNCTION      0.00   454.49     0  02:52           0        6.27       0.056
  HS02004901           JUNCTION      6.68     6.68     0  02:14      0.0206      0.0207       9.260
  HS02004881           JUNCTION      2.69    22.38     0  02:22     0.00897      0.0929       0.230
  HS02004876           JUNCTION      4.25    19.93     0  02:22      0.0171      0.0845       0.618
  HS02004870           JUNCTION      4.73    15.77     0  02:22       0.017      0.0675       0.157
  HS02004862           JUNCTION      3.94    11.37     0  02:23      0.0225      0.0507       0.326
  HS02004856           JUNCTION      3.50     7.47     0  02:22      0.0128      0.0296       5.107
  HS02004852           JUNCTION      0.00     4.20     0  02:23           0      0.0169       0.285
  HS02004848           JUNCTION      7.64     7.64     0  02:25        0.04        0.04       0.105
  HS02004842           JUNCTION      0.00     4.47     0  00:03           0      0.0361      56.247
  HS02004837           JUNCTION     13.90    17.17     0  02:21       0.209       0.232       0.353
  HS02004830           JUNCTION      0.15    17.32     0  02:22     0.00423       0.222       0.558
  HS02004824           JUNCTION      8.57    25.78     0  02:26      0.0525       0.273       0.197
  HS02004817           JUNCTION      0.60    26.38     0  02:26      0.0169        0.29       6.102
  HS02004807           JUNCTION      8.91    34.48     0  02:24      0.0312       0.304       1.408
  HS02004802           JUNCTION      0.00    34.56     0  02:26           0         0.3       1.369
  HS02004799           JUNCTION      6.84    76.70     0  02:21      0.0252       0.323       0.701
  HS02004792           JUNCTION     30.79    70.06     0  02:21       0.113       0.298       0.140
  HS02004788           JUNCTION     10.94    40.90     0  02:22      0.0821       0.186       0.211
  HS02004785           JUNCTION      0.15    30.36     0  02:21     0.00423       0.106       0.453
  HS02004777           JUNCTION      0.03    30.69     0  02:18    0.000846       0.106       5.124
  HS02004770           JUNCTION     26.01    31.73     0  02:16      0.0879       0.107       2.987
  HS02004480           JUNCTION      0.00    90.31     0  02:22           0       0.373       0.184
  HS02004479           JUNCTION      0.00    13.92     0  02:24           0      0.0624       1.179
  HS02004478           JUNCTION      0.00   124.54     0  02:23           0       0.658       0.100
  YS02001745           JUNCTION     41.47    41.47     0  03:01       0.487       0.487       0.074
  YS02001748           JUNCTION      0.04    41.51     0  03:01     0.00127       0.487       0.042
  YS02001751           JUNCTION      0.01    72.50     0  04:26     0.00031        0.62       0.288
  YS02001754           JUNCTION      0.26   212.30     0  04:27     0.00733        1.08       0.903
  YS02001762           JUNCTION      0.00    63.08     0  03:18           0       0.633       2.164
  YS02001765           JUNCTION      0.00    82.77     0  03:26           0       0.622       2.308
  YS02001767           JUNCTION      0.54    64.75     0  04:53      0.0151       0.628       3.184
  YS02001770           JUNCTION     54.05    59.84     0  02:50       0.582       0.604       2.749
  YS02001774           JUNCTION      0.00    29.39     0  02:30           0      0.0938      18.369
  YS02001779           JUNCTION      0.01    12.23     0  04:16    0.000141      0.0571       9.961
  YS02001882           JUNCTION      0.00     2.32     0  02:12           0     0.00356      69.164
  YS02001884           JUNCTION      0.00     7.07     0  02:12           0      0.0145      43.488
  YS02001759           JUNCTION     52.91   123.21     0  03:27       0.546        1.15       1.392
  YS02001887           JUNCTION     70.23    70.23     0  02:50       0.667       0.673       0.997
  YS02001890           JUNCTION      0.00    69.87     0  02:53           0       0.654       1.130
  YS02001898           JUNCTION      0.00    69.61     0  02:56           0       0.644       0.288
  YS02001901           JUNCTION      0.00    69.60     0  02:56           0       0.644       0.785
  YS02001904           JUNCTION      0.00    69.35     0  02:57           0       0.643       0.732
  YS02001907           JUNCTION      0.00   126.36     0  03:02           0        1.37       1.577
  YS02001910           JUNCTION      0.00    57.17     0  03:01           0       0.736       1.311
  YS02001915           JUNCTION     37.43    57.01     0  03:01        0.42        0.74       0.538
  YS02001918           JUNCTION      0.00    19.77     0  03:03           0        0.32       0.266
  YS02001619           JUNCTION     36.31    36.31     0  03:01       0.413       0.413       0.135
  YS02001629           JUNCTION      0.00    39.21     0  02:39           0       0.397       1.384
  YS02001641           JUNCTION      0.00    84.23     0  03:13           0       0.842       1.517
  YS02001644           JUNCTION     39.35   118.06     0  03:04       0.466        1.29       1.199
  YS02001652           JUNCTION      0.00    67.45     0  04:31           0       0.548       1.592
  YS02001655           JUNCTION      0.15    49.68     0  02:53     0.00434       0.494       0.673
  YS02001920           JUNCTION      2.87    19.78     0  03:02      0.0809       0.322       0.540
  YS02001923           JUNCTION      0.04    16.91     0  03:02     0.00106       0.241       0.095
  YS02001926           JUNCTION      0.05    16.93     0  03:01     0.00147       0.242       0.690
  YS02001929           JUNCTION     16.89    16.89     0  03:01       0.241       0.241       0.090
  YS02001658           JUNCTION      0.00    49.53     0  02:53           0       0.481       0.042
  YS02001661           JUNCTION      0.00    49.53     0  02:53           0       0.481       0.153
  YS02001664           JUNCTION     49.53    49.53     0  02:53       0.482       0.482       0.031
  YS02001622           JUNCTION      0.00    37.07     0  02:59           0       0.413       0.613
  YS02001633           JUNCTION     40.01    79.01     0  02:39       0.481       0.865       2.143
  YS02001649           JUNCTION      0.00   184.64     0  03:20           0        1.78       1.326
  YS02001757           JUNCTION      0.00   402.12     0  03:27           0        3.68       1.914
  YS02001895           JUNCTION      0.00    69.68     0  02:55           0       0.647       0.494
  YS02001625           JUNCTION      0.00    37.70     0  02:47           0        0.41       3.707
  YS02163301           JUNCTION      0.00    42.91     0  03:13           0       0.397       3.138
  YS02163601           JUNCTION      0.11    82.02     0  03:13      0.0031       0.846       2.292
  YS02164001           JUNCTION      0.00    82.23     0  03:13           0       0.836       1.400
  YS02001647           JUNCTION      0.00   120.98     0  03:06           0        1.26       0.943
  YSB1154              JUNCTION      7.56     7.56     0  02:19      0.0305      0.0319       4.738
  YSB6556              JUNCTION      0.00     7.51     0  02:21           0      0.0329       3.922
  YSB1174              JUNCTION      7.63     7.63     0  02:13      0.0223      0.0234       5.817
  YSB1171              JUNCTION      0.00    13.90     0  02:20           0      0.0619      11.373
  YS02006553           JUNCTION      0.00   126.54     0  03:03           0        1.36       1.027
  YS02006561           JUNCTION      0.00   185.21     0  03:00           0        1.92       0.028
  YS02006556           JUNCTION      0.00   126.72     0  03:03           0        1.36       0.736
  YS02006558           JUNCTION     59.48   185.22     0  03:00       0.607        1.94       0.222
  YS02001783           JUNCTION      0.00   185.21     0  03:00           0        1.92       0.065
  YS02001784           JUNCTION      1.06   186.27     0  03:01      0.0299        1.94       0.109
  YS02001786           JUNCTION      0.06   186.32     0  03:01     0.00159        1.94       0.106
  YS02001788           JUNCTION      0.07   186.39     0  03:02       0.002        1.94       0.059
  YS02001790           JUNCTION      0.15   186.54     0  03:02     0.00437        1.95       0.077
  YS02001791           JUNCTION      0.00   186.53     0  03:02           0        1.95       0.037
  YS02001793           JUNCTION      0.00   186.53     0  03:02           0        1.94       0.016
  WS02004139           JUNCTION      0.32   379.55     0  05:20     0.00905        6.39       0.606
  WSC                  OUTFALL       0.00   743.20     0  02:55           0        13.1       0.000
  3                    OUTFALL       0.00   295.06     0  03:26           0        1.59       0.000
  4                    OUTFALL       0.00   112.69     0  03:07           0       0.157       0.000
  5                    OUTFALL       0.00     0.00     0  00:00           0           0       0.000 ltr
  JK-storage           STORAGE       0.00   186.53     0  03:02           0         2.1     -39.022
  CC-storage           STORAGE       0.00   308.38     0  03:07           0        3.15     -20.444
  XR-storage           STORAGE     267.86   267.86     0  03:01        6.45        7.05       0.000
  
  
  **********************
  Node Surcharge Summary
  **********************
  
  Surcharging occurs when water rises above the top of the highest conduit.
  ---------------------------------------------------------------------
                                               Max. Height   Min. Depth
                                   Hours       Above Crown    Below Rim
  Node                 Type      Surcharged         Meters       Meters
  ---------------------------------------------------------------------
  WS02006109           JUNCTION        0.86          0.076        1.744
  WS02006232           JUNCTION        0.98          0.058        1.422
  WS02006235           JUNCTION        0.46          0.039        1.251
  WS02006238           JUNCTION        0.66          0.058        1.372
  WS02006242           JUNCTION        0.44          0.050        0.770
  WS02006239           JUNCTION        0.18          0.014        1.276
  WS02006252           JUNCTION        1.59          0.185        0.915
  WS02006228           JUNCTION        0.81          0.137        2.063
  
  
  *********************
  Node Flooding Summary
  *********************
  
  No nodes were flooded.
  
  
  **********************
  Storage Volume Summary
  **********************
  
  --------------------------------------------------------------------------------------------------
                         Average     Avg  Evap Exfil       Maximum     Max    Time of Max    Maximum
                          Volume    Pcnt  Pcnt  Pcnt        Volume    Pcnt     Occurrence    Outflow
  Storage Unit           1000 m3    Full  Loss  Loss       1000 m3    Full    days hr:min        LPS
  --------------------------------------------------------------------------------------------------
  JK-storage               0.003       1     0     0         0.151      52       0  00:00     403.21
  CC-storage               0.030       0     0     0         0.172       1       0  04:10     400.00
  XR-storage               0.564      61     0     0         0.776      84       0  07:03     379.93
  
  
  ***********************
  Outfall Loading Summary
  ***********************
  
  -----------------------------------------------------------
                         Flow       Avg       Max       Total
                         Freq      Flow      Flow      Volume
  Outfall Node           Pcnt       LPS       LPS    10^6 ltr
  -----------------------------------------------------------
  WSC                   99.99    532.08    743.20      13.108
  3                     69.15    115.17    295.06       1.592
  4                     21.41     38.51    112.69       0.157
  5                      0.00      0.00      0.00       0.000
  -----------------------------------------------------------
  System                47.64    685.75   1012.58      14.856
  
  
  ********************
  Link Flow Summary
  ********************
  
  -----------------------------------------------------------------------------
                                 Maximum  Time of Max   Maximum    Max/    Max/
                                  |Flow|   Occurrence   |Veloc|    Full    Full
  Link                 Type          LPS  days hr:min     m/sec    Flow   Depth
  -----------------------------------------------------------------------------
  WS02003066WSF200     CONDUIT    454.49     0  02:52      2.63    0.08    0.21
  WS02006287WS02006284 CONDUIT    124.52     0  02:24      1.36    0.06    0.17
  WS02006284WS02006280 CONDUIT    124.62     0  02:24      1.60    0.05    0.16
  WS02006280WS02006229 CONDUIT    124.62     0  02:24      2.57    0.03    0.11
  WS02006229WS02006228 CONDUIT    470.96     0  02:43      0.94    1.56    1.00
  WS02006256WS02006235 CONDUIT    166.25     0  00:01      2.58    1.76    1.00
  WS02006253WS02006251 CONDUIT     44.57     0  05:40      0.40    0.13    0.91
  WS02006252WS02006251 CONDUIT    400.10     0  03:00      3.18    1.47    1.00
  WS02006251WS02006249 CONDUIT    410.85     0  03:06      1.19    1.18    0.88
  WS02006249WS02006248 CONDUIT    353.38     0  03:00      1.14    1.94    0.84
  WS02006248WS02006247 CONDUIT    346.88     0  03:00      1.10    0.76    0.88
  WS02006247WS02006245 CONDUIT    340.34     0  03:01      1.06    2.70    0.92
  WS02006245WS02006243 CONDUIT    335.08     0  03:01      1.07    0.99    0.93
  WS02006243WS02006242 CONDUIT    319.78     0  02:40      0.92    0.68    0.98
  WS02006242WS02006240 CONDUIT    310.74     0  04:31      0.84    1.23    1.00
  WS02006240WS02006239 CONDUIT    308.25     0  04:31      0.87    0.97    1.00
  WS02006239WS02006238 CONDUIT    308.70     0  03:20      0.84    0.99    1.00
  WS02006238WS02006235 CONDUIT    314.42     0  03:20      1.25    0.70    1.00
  WS02006235WS02006234 CONDUIT    384.84     0  03:41      1.01    4.06    0.99
  WS02006234WS02006232 CONDUIT    383.71     0  03:42      1.13    0.78    1.00
  WS02006232WS02006231 CONDUIT    383.53     0  03:42      1.05    0.80    0.94
  WS02006231WS02006230 CONDUIT    382.54     0  03:42      1.31    5.80    0.83
  WS02006230WS02006229 CONDUIT    392.48     0  03:43      1.02    8.73    1.00
  WS02006228WS02006109 CONDUIT    470.97     0  02:43      0.94    2.06    1.00
  WS02006116WS02004401 CONDUIT    463.54     0  02:47      0.73    0.64    0.78
  WS02006115WS02006116 CONDUIT    466.05     0  02:45      0.82    0.60    0.70
  WS02006113WS02006111 CONDUIT    486.63     0  02:44      2.35    0.58    0.43
  WS02006112WS02006115 CONDUIT    472.01     0  02:45      0.70    0.28    0.83
  WS02006111WS02006112 CONDUIT    475.49     0  02:44      1.35    0.23    0.66
  WS02006110WS02006113 CONDUIT    472.33     0  02:43      1.15    0.43    0.76
  WS02006109WS02006110 CONDUIT    472.26     0  02:43      0.95    0.91    0.98
  WS02004411WS02004412 CONDUIT    455.70     0  02:50      0.86    0.65    0.64
  WS02004401WS02004402 CONDUIT    462.61     0  02:48      0.77    0.56    0.81
  WS02004413WS02003067 CONDUIT    454.43     0  02:51      1.01    0.19    0.56
  WS02004412WS02004413 CONDUIT    454.80     0  02:51      0.74    0.30    0.73
  WS02004410WS02004411 CONDUIT    457.12     0  02:50      0.88    0.62    0.63
  WS02004409WS02004410 CONDUIT    459.10     0  02:49      0.92    0.59    0.62
  WS02004407WS02004409 CONDUIT    461.56     0  02:49      1.41    0.16    0.44
  WS02004406WS02004407 CONDUIT    461.66     0  02:49      0.95    0.21    0.59
  WS02004405WS02004406 CONDUIT    461.84     0  02:48      0.66    0.91    0.91
  WS02004404WS02004405 CONDUIT    461.77     0  02:48      0.84    4.52    0.91
  WS02004403WS02004404 CONDUIT    461.71     0  02:48      0.74    0.33    0.88
  WS02004402WS02004403 CONDUIT    462.18     0  02:48      0.76    0.66    0.83
  WS02004139WS02001211 CONDUIT    373.87     0  05:20      0.81    0.47    0.57
  WS02004138WS02004139 CONDUIT    379.23     0  05:20      3.33    0.08    0.43
  WS02003067WS02003066 CONDUIT    454.51     0  02:51      1.10    0.15    0.39
  WS02001213WS02003059 CONDUIT    376.22     0  05:21      0.80    0.62    0.72
  WS02001212WS02001213 CONDUIT    376.28     0  05:21      1.30    0.58    0.43
  WS02001211WS02001212 CONDUIT    377.20     0  05:21      0.76    0.29    0.62
  WS02003072WS02003073 CONDUIT    741.59     0  02:54      1.59    1.60    0.43
  WS02003069WS02003072 CONDUIT    741.66     0  02:54      1.50    0.36    0.45
  WS02003060WS02003069 CONDUIT    741.64     0  02:53      1.76    0.29    0.40
  WS02003059WS02003060 CONDUIT    376.43     0  05:22      0.92    0.25    0.60
  HS02004901HS02004770 CONDUIT      5.99     0  02:21      0.03    0.02    0.26
  HS02004876HS02004881 CONDUIT     19.93     0  02:23      0.39    0.21    0.07
  HS02004870HS02004876 CONDUIT     15.76     0  02:23      0.27    0.01    0.08
  HS02004842HS02004848 CONDUIT      3.65     0  02:35      0.02    0.00    0.26
  HS02004837HS02004842 CONDUIT      4.47     0  00:03      0.41    0.00    0.28
  HS02004830HS02004837 CONDUIT     17.17     0  02:22      0.38    0.02    0.06
  HS02004824HS02004830 CONDUIT     17.32     0  02:23      0.43    0.02    0.06
  HS02004817HS02004824 CONDUIT     25.78     0  02:26      0.17    0.01    0.37
  HS02004770HS02004777 CONDUIT     30.66     0  02:18      0.16    0.06    0.28
  HS02004799HS02004480 CONDUIT     76.56     0  02:21      0.45    0.10    0.24
  HS02004792HS02004799 CONDUIT     70.02     0  02:21      0.52    0.04    0.19
  HS02004788HS02004792 CONDUIT     40.87     0  02:23      0.69    0.03    0.09
  HS02004785HS02004788 CONDUIT     30.25     0  02:23      0.40    0.23    0.11
  HS02004777HS02004785 CONDUIT     30.21     0  02:21      0.19    0.04    0.22
  HS02004480HS02004478 CONDUIT     90.29     0  02:22      0.77    0.38    0.17
  HS02004479HS02004480 CONDUIT     14.03     0  02:24      0.15    0.01    0.24
  HS02004862HS02004870 CONDUIT     11.34     0  02:24      0.37    0.01    0.04
  HS02004848HS02004852 CONDUIT      4.20     0  02:23      0.24    0.00    0.03
  HS02004856HS02004862 CONDUIT      7.45     0  02:24      0.27    0.01    0.04
  HS02004852HS02004856 CONDUIT      4.17     0  02:25      0.08    0.00    0.08
  HS02004802HS02004478 CONDUIT     34.71     0  02:27      0.24    0.03    0.21
  HS02004478WS02006287 CONDUIT    124.54     0  02:23      1.05    0.03    0.13
  HS02004817HS02004807 CONDUIT     26.61     0  02:28      0.08    0.02    0.47
  HS02004807HS02004802 CONDUIT     34.56     0  02:26      0.19    0.07    0.25
  YS02001759YS02001757 CONDUIT    119.26     0  02:59      0.16    0.08    0.91
  YS02001762YS02001759 CONDUIT     83.13     0  04:31      0.17    0.10    0.83
  YS02001765YS02001762 CONDUIT     63.08     0  03:18      0.22    0.06    0.79
  YS02001770YS02001767 CONDUIT     63.53     0  02:59      0.30    0.25    0.72
  YS02001774YS02001770 CONDUIT     29.39     0  02:30      0.12    0.02    0.74
  YS02001779YS02001774 CONDUIT     12.52     0  04:23      0.07    0.01    0.66
  YS02001649YS02001757 CONDUIT    181.07     0  03:07      0.25    0.11    0.89
  YS02001767YS02001765 CONDUIT     82.77     0  03:26      0.26    0.10    0.75
  YS02006561YS02001783 CONDUIT    185.21     0  03:00      1.55    0.10    0.29
  YS02001783YS02001784 CONDUIT    185.21     0  03:01      1.04    0.26    0.39
  YS02001784YS02001785 CONDUIT    186.26     0  03:01      1.08    0.43    0.37
  YS02001788YS02001790 CONDUIT    186.38     0  03:02      1.63    0.14    0.28
  YS02001790YS02001791 CONDUIT    186.53     0  03:02      1.87    0.20    0.25
  YS02001791YS02001793 CONDUIT    186.53     0  03:02      3.63    0.08    0.17
  YS02001910YS02001907 CONDUIT     57.14     0  03:01      0.49    0.03    0.63
  YS02001786YS02001788 CONDUIT    186.32     0  03:02      1.49    0.36    0.30
  YS02001915YS02001910 CONDUIT     57.17     0  03:01      0.44    0.03    0.42
  YS02001918YS02001915 CONDUIT     19.75     0  03:04      0.44    0.01    0.20
  YS02001923YS02001920 CONDUIT     16.91     0  03:02      0.34    0.01    0.12
  YS02001926YS02001923 CONDUIT     16.87     0  03:02      0.39    0.02    0.10
  YS02001929YS02001926 CONDUIT     16.88     0  03:01      0.41    0.01    0.10
  YS02001920YS02001918 CONDUIT     19.77     0  03:03      0.37    0.02    0.12
  YS02001629YS02163301 CONDUIT     42.91     0  03:13      0.09    0.05    0.68
  YS02001619YS02001622 CONDUIT     37.07     0  02:59      0.56    0.05    0.30
  YS02001622YS02001625 CONDUIT     37.70     0  02:47      0.19    0.02    0.46
  YS02001625YS02001629 CONDUIT     39.21     0  02:39      0.19    0.02    0.45
  YS02163301YS02001633 CONDUIT     42.61     0  02:39      0.08    0.04    0.73
  YS02163601YS02164001 CONDUIT     82.23     0  03:13      0.12    0.07    0.79
  YS02164001YS02001641 CONDUIT     84.23     0  03:13      0.13    0.12    0.77
  YS02001641YS02001644 CONDUIT     80.00     0  03:14      0.13    0.26    0.78
  YS02001647YS02001649 CONDUIT    123.06     0  03:17      0.21    0.06    0.71
  YS02006553YS02006556 CONDUIT    126.72     0  03:03      0.21    0.11    0.72
  YS02006556YS02006558 CONDUIT    126.84     0  03:04      0.20    0.10    0.75
  YSB6556YSB1171       CONDUIT      7.58     0  02:25      0.04    0.01    0.51
  YS02001907YS02006553 CONDUIT    126.54     0  03:03      0.17    0.15    0.82
  YS02006558YS02006561 CONDUIT    185.21     0  03:00      2.00    0.41    0.36
  YS02001633YS02163601 CONDUIT     81.91     0  03:13      0.13    0.09    0.78
  YS02001644YS02001647 CONDUIT    120.98     0  03:06      0.21    0.07    0.69
  YS02001745YS02001748 CONDUIT     41.46     0  03:01      1.23    0.02    0.09
  YS02001748YS02001751 CONDUIT     49.18     0  03:29      0.96    0.02    0.24
  YS02001751YS02001754 CONDUIT     99.43     0  04:19      0.87    0.05    0.45
  YS02001754YS02001757 CONDUIT    167.99     0  04:34      0.33    0.07    0.79
  YS02001882YS02001884 CONDUIT      2.32     0  02:12      0.06    0.00    0.36
  YS02001884YS02001887 CONDUIT      7.07     0  02:12      0.05    0.01    0.45
  YS02001890YS02001895 CONDUIT     69.68     0  02:55      0.22    0.03    0.42
  YS02001895YS02001898 CONDUIT     69.61     0  02:56      0.43    0.12    0.29
  YS02001898YS02001901 CONDUIT     69.60     0  02:56      0.27    0.04    0.37
  YS02001901YS02001904 CONDUIT     69.35     0  02:57      0.22    0.11    0.42
  YS02001904YS02001907 CONDUIT     69.48     0  03:02      0.15    0.02    0.58
  YS02001887YS02001890 CONDUIT     69.87     0  02:53      0.18    0.12    0.51
  YS02001652YS02001649 CONDUIT     68.57     0  03:35      0.28    0.03    0.72
  YS02001655YS02001652 CONDUIT     62.14     0  03:07      0.93    0.03    0.48
  YS02001658YS02001655 CONDUIT     49.53     0  02:53      1.10    0.02    0.23
  YS02001661YS02001658 CONDUIT     49.53     0  02:53      1.24    0.02    0.10
  YS02001664YS02001661 CONDUIT     49.53     0  02:53      0.86    0.02    0.13
  YSB1154YSB6556       CONDUIT      7.51     0  02:21      0.19    0.01    0.40
  YSB1174YSB1171       CONDUIT      7.06     0  02:15      0.04    0.01    0.52
  YSB1171HS02004479    CONDUIT     13.92     0  02:24      0.54    0.01    0.39
  HS02004881HS02006253 CONDUIT     22.38     0  02:23      1.34    0.00    0.23
  YS02001793JiankangQianchi CONDUIT    186.53     0  03:02     11.27    0.01    0.50
  YS02001757CaochengTiaoxuchi CONDUIT    308.38     0  03:07      0.82    0.14    0.49
  WSF200WS02003060     CONDUIT    455.12     0  02:52      1.64    0.10    0.30
  1                    CONDUIT    743.20     0  02:55      3.07    0.26    0.35
  2                    CONDUIT    112.69     0  03:07      5.01    0.27    0.36
  3                    CONDUIT    295.06     0  03:26      8.66    0.47    0.49
  4                    CONDUIT      0.00     0  00:00      0.00    0.00    0.00
  CC-Pump-1            PUMP       200.00     0  02:38              1.00
  CC-Pump-2            PUMP       200.00     0  03:00              1.00
  JK-Pump-1            PUMP       201.60     0  03:26              0.67
  JK-Pump-2            PUMP       300.00     0  00:00              1.00
  XR-Pump-1            PUMP        95.00     0  01:10              1.00
  XR-Pump-2            PUMP        95.00     0  00:00              1.00
  XR-Pump-3            PUMP        95.00     0  00:00              1.00
  XR-Pump-4            PUMP        95.00     0  00:00              1.00
  
  
  ***************************
  Flow Classification Summary
  ***************************
  
  -------------------------------------------------------------------------------------
                      Adjusted    ---------- Fraction of Time in Flow Class ---------- 
                       /Actual         Up    Down  Sub   Sup   Up    Down  Norm  Inlet 
  Conduit               Length    Dry  Dry   Dry   Crit  Crit  Crit  Crit  Ltd   Ctrl  
  -------------------------------------------------------------------------------------
  WS02003066WSF200        1.00   0.05  0.01  0.00  0.00  0.94  0.00  0.00  0.76  0.00
  WS02006287WS02006284    1.00   0.04  0.02  0.00  0.73  0.22  0.00  0.00  0.81  0.00
  WS02006284WS02006280    1.00   0.05  0.00  0.00  0.00  0.00  0.00  0.95  0.00  0.00
  WS02006280WS02006229    1.00   0.05  0.00  0.00  0.00  0.00  0.00  0.95  0.00  0.00
  WS02006229WS02006228    1.00   0.00  0.00  0.00  0.99  0.00  0.00  0.01  0.00  0.00
  WS02006256WS02006235    1.00   0.00  0.00  0.00  1.00  0.00  0.00  0.00  0.00  0.00
  WS02006253WS02006251    1.00   0.03  0.01  0.00  0.95  0.00  0.00  0.00  0.00  0.00
  WS02006252WS02006251    1.00   0.10  0.00  0.00  0.00  0.00  0.90  0.00  0.00  0.00
  WS02006251WS02006249    1.00   0.00  0.00  0.00  1.00  0.00  0.00  0.00  0.31  0.00
  WS02006249WS02006248    1.00   0.00  0.02  0.00  0.89  0.00  0.09  0.00  0.00  0.00
  WS02006248WS02006247    1.00   0.02  0.00  0.00  0.97  0.00  0.00  0.00  0.19  0.00
  WS02006247WS02006245    1.00   0.02  0.00  0.00  0.98  0.00  0.00  0.00  0.00  0.00
  WS02006245WS02006243    1.00   0.01  0.00  0.00  0.94  0.00  0.00  0.04  0.02  0.00
  WS02006243WS02006242    1.00   0.01  0.00  0.00  0.99  0.00  0.00  0.00  0.27  0.00
  WS02006242WS02006240    1.00   0.00  0.00  0.00  1.00  0.00  0.00  0.00  0.00  0.00
  WS02006240WS02006239    1.00   0.00  0.00  0.00  0.95  0.00  0.00  0.05  0.01  0.00
  WS02006239WS02006238    1.00   0.00  0.00  0.00  1.00  0.00  0.00  0.00  0.00  0.00
  WS02006238WS02006235    1.00   0.00  0.00  0.00  1.00  0.00  0.00  0.00  0.00  0.00
  WS02006235WS02006234    1.00   0.00  0.00  0.00  0.95  0.00  0.05  0.00  0.00  0.00
  WS02006234WS02006232    1.00   0.00  0.00  0.00  1.00  0.00  0.00  0.00  0.05  0.00
  WS02006232WS02006231    1.00   0.00  0.00  0.00  0.99  0.00  0.00  0.00  0.00  0.00
  WS02006231WS02006230    1.00   0.00  0.00  0.00  0.49  0.00  0.50  0.00  0.00  0.00
  WS02006230WS02006229    1.00   0.00  0.00  0.00  0.98  0.00  0.00  0.02  0.00  0.00
  WS02006228WS02006109    1.00   0.00  0.00  0.00  1.00  0.00  0.00  0.00  0.00  0.00
  WS02006116WS02004401    1.00   0.03  0.00  0.00  0.97  0.00  0.00  0.00  0.00  0.00
  WS02006115WS02006116    1.00   0.03  0.00  0.00  0.97  0.00  0.00  0.01  0.00  0.00
  WS02006113WS02006111    1.00   0.02  0.00  0.00  0.00  0.98  0.00  0.00  0.11  0.00
  WS02006112WS02006115    1.00   0.02  0.00  0.00  0.97  0.00  0.00  0.00  0.00  0.00
  WS02006111WS02006112    1.00   0.02  0.00  0.00  0.97  0.00  0.00  0.00  0.98  0.00
  WS02006110WS02006113    1.00   0.01  0.01  0.00  0.98  0.00  0.00  0.00  0.00  0.00
  WS02006109WS02006110    1.00   0.00  0.01  0.00  0.98  0.00  0.01  0.00  0.00  0.00
  WS02004411WS02004412    1.00   0.04  0.00  0.00  0.96  0.00  0.00  0.00  0.00  0.00
  WS02004401WS02004402    1.00   0.03  0.00  0.00  0.97  0.00  0.00  0.00  0.00  0.00
  WS02004413WS02003067    1.00   0.04  0.01  0.00  0.00  0.00  0.94  0.00  0.00  0.00
  WS02004412WS02004413    1.00   0.04  0.00  0.00  0.96  0.00  0.00  0.00  0.03  0.00
  WS02004410WS02004411    1.00   0.04  0.00  0.00  0.96  0.00  0.00  0.00  0.03  0.00
  WS02004409WS02004410    1.00   0.04  0.00  0.00  0.96  0.00  0.00  0.00  0.03  0.00
  WS02004407WS02004409    1.00   0.04  0.00  0.00  0.96  0.00  0.00  0.00  0.89  0.00
  WS02004406WS02004407    1.00   0.00  0.04  0.00  0.96  0.00  0.00  0.00  0.00  0.00
  WS02004405WS02004406    1.00   0.00  0.00  0.00  1.00  0.00  0.00  0.00  0.00  0.00
  WS02004404WS02004405    1.00   0.00  0.00  0.00  1.00  0.00  0.00  0.00  0.00  0.00
  WS02004403WS02004404    1.00   0.00  0.03  0.00  0.97  0.00  0.00  0.00  0.01  0.00
  WS02004402WS02004403    1.00   0.03  0.00  0.00  0.97  0.00  0.00  0.00  0.00  0.00
  WS02004139WS02001211    1.00   0.00  0.00  0.00  1.00  0.00  0.00  0.00  0.00  0.00
  WS02004138WS02004139    1.00   0.00  0.00  0.00  0.99  0.01  0.00  0.00  1.00  0.00
  WS02003067WS02003066    1.00   0.06  0.00  0.00  0.94  0.00  0.00  0.00  0.00  0.00
  WS02001213WS02003059    1.00   0.00  0.00  0.00  0.99  0.00  0.00  0.00  0.00  0.00
  WS02001212WS02001213    1.00   0.00  0.00  0.00  0.81  0.00  0.18  0.00  0.00  0.00
  WS02001211WS02001212    1.00   0.00  0.00  0.00  1.00  0.00  0.00  0.00  0.00  0.00
  WS02003072WS02003073    1.00   0.00  0.00  0.00  0.00  0.00  0.00  1.00  0.00  0.00
  WS02003069WS02003072    1.00   0.00  0.00  0.00  0.99  0.01  0.00  0.00  0.31  0.00
  WS02003060WS02003069    1.00   0.00  0.00  0.00  0.98  0.02  0.00  0.00  0.15  0.00
  WS02003059WS02003060    1.00   0.00  0.00  0.00  1.00  0.00  0.00  0.00  0.01  0.00
  HS02004901HS02004770    1.00   0.05  0.00  0.00  0.95  0.00  0.00  0.00  0.03  0.00
  HS02004876HS02004881    1.00   0.02  0.00  0.00  0.98  0.00  0.00  0.00  0.00  0.00
  HS02004870HS02004876    1.00   0.01  0.00  0.00  0.99  0.00  0.00  0.00  0.95  0.00
  HS02004842HS02004848    1.00   0.00  0.05  0.00  0.95  0.00  0.00  0.00  0.70  0.00
  HS02004837HS02004842    1.00   0.00  0.00  0.00  0.99  0.01  0.00  0.00  0.11  0.00
  HS02004830HS02004837    1.00   0.00  0.00  0.00  1.00  0.00  0.00  0.00  0.99  0.00
  HS02004824HS02004830    1.00   0.00  0.00  0.00  1.00  0.00  0.00  0.00  0.00  0.00
  HS02004817HS02004824    1.00   0.00  0.00  0.00  1.00  0.00  0.00  0.00  1.00  0.00
  HS02004770HS02004777    1.00   0.00  0.05  0.00  0.95  0.00  0.00  0.00  0.08  0.00
  HS02004799HS02004480    1.00   0.00  0.03  0.00  0.94  0.00  0.03  0.00  0.00  0.00
  HS02004792HS02004799    1.00   0.00  0.00  0.00  0.99  0.01  0.00  0.00  0.98  0.00
  HS02004788HS02004792    1.00   0.00  0.00  0.00  0.99  0.01  0.00  0.00  0.98  0.00
  HS02004785HS02004788    1.00   0.00  0.00  0.00  1.00  0.00  0.00  0.00  0.00  0.00
  HS02004777HS02004785    1.00   0.00  0.00  0.00  1.00  0.00  0.00  0.00  0.21  0.00
  HS02004480HS02004478    1.00   0.05  0.00  0.00  0.75  0.00  0.00  0.20  0.00  0.00
  HS02004479HS02004480    1.00   0.03  0.00  0.00  0.97  0.00  0.00  0.00  0.16  0.00
  HS02004862HS02004870    1.00   0.00  0.00  0.00  1.00  0.00  0.00  0.00  0.05  0.00
  HS02004848HS02004852    1.00   0.05  0.00  0.00  0.95  0.00  0.00  0.00  0.70  0.00
  HS02004856HS02004862    1.00   0.00  0.07  0.00  0.93  0.00  0.00  0.00  0.73  0.00
  HS02004852HS02004856    1.00   0.05  0.01  0.00  0.95  0.00  0.00  0.00  0.82  0.00
  HS02004802HS02004478    1.00   0.05  0.01  0.00  0.95  0.00  0.00  0.00  0.00  0.00
  HS02004478WS02006287    1.00   0.06  0.00  0.00  0.94  0.00  0.00  0.00  0.81  0.00
  HS02004817HS02004807    1.00   0.00  0.05  0.00  0.95  0.00  0.00  0.00  0.00  0.00
  HS02004807HS02004802    1.00   0.05  0.00  0.00  0.95  0.00  0.00  0.00  0.01  0.00
  YS02001759YS02001757    1.00   0.00  0.00  0.00  1.00  0.00  0.00  0.00  0.17  0.00
  YS02001762YS02001759    1.00   0.00  0.00  0.00  1.00  0.00  0.00  0.00  0.05  0.00
  YS02001765YS02001762    1.00   0.00  0.00  0.00  1.00  0.00  0.00  0.00  0.23  0.00
  YS02001770YS02001767    1.00   0.00  0.00  0.00  1.00  0.00  0.00  0.00  0.00  0.00
  YS02001774YS02001770    1.00   0.00  0.05  0.00  0.94  0.00  0.00  0.00  0.07  0.00
  YS02001779YS02001774    1.00   0.00  0.00  0.00  1.00  0.00  0.00  0.00  0.28  0.00
  YS02001649YS02001757    1.00   0.00  0.00  0.00  1.00  0.00  0.00  0.00  0.19  0.00
  YS02001767YS02001765    1.00   0.00  0.00  0.00  1.00  0.00  0.00  0.00  0.01  0.00
  YS02006561YS02001783    1.00   0.07  0.00  0.00  0.00  0.93  0.00  0.00  0.72  0.00
  YS02001783YS02001784    1.00   0.00  0.07  0.00  0.93  0.00  0.00  0.00  0.08  0.00
  YS02001784YS02001785    1.00   0.00  0.00  0.00  1.00  0.00  0.00  0.00  0.26  0.00
  YS02001788YS02001790    1.00   0.00  0.00  0.00  0.08  0.92  0.00  0.00  0.99  0.00
  YS02001790YS02001791    1.00   0.00  0.00  0.00  0.02  0.98  0.00  0.00  0.38  0.00
  YS02001791YS02001793    1.00   0.00  0.00  0.00  0.00  1.00  0.00  0.00  0.00  0.00
  YS02001910YS02001907    1.00   0.00  0.00  0.00  0.97  0.00  0.00  0.03  0.13  0.00
  YS02001786YS02001788    1.00   0.00  0.00  0.00  0.08  0.92  0.00  0.00  0.00  0.00
  YS02001915YS02001910    1.00   0.00  0.00  0.00  0.99  0.01  0.00  0.00  0.25  0.00
  YS02001918YS02001915    1.00   0.00  0.01  0.00  0.98  0.02  0.00  0.00  0.81  0.00
  YS02001923YS02001920    1.00   0.00  0.00  0.00  1.00  0.00  0.00  0.00  1.00  0.00
  YS02001926YS02001923    1.00   0.00  0.04  0.00  0.00  0.00  0.96  0.00  0.00  0.00
  YS02001929YS02001926    1.00   0.00  0.05  0.00  0.95  0.00  0.00  0.00  0.86  0.00
  YS02001920YS02001918    1.00   0.00  0.01  0.00  0.99  0.00  0.00  0.00  0.00  0.00
  YS02001629YS02163301    1.00   0.06  0.00  0.00  0.93  0.00  0.00  0.00  0.00  0.00
  YS02001619YS02001622    1.00   0.05  0.00  0.00  0.95  0.00  0.00  0.00  0.00  0.00
  YS02001622YS02001625    1.00   0.05  0.00  0.00  0.95  0.00  0.00  0.00  0.14  0.00
  YS02001625YS02001629    1.00   0.05  0.03  0.00  0.90  0.00  0.02  0.00  0.00  0.00
  YS02163301YS02001633    1.00   0.00  0.06  0.00  0.94  0.00  0.00  0.00  0.00  0.00
  YS02163601YS02164001    1.00   0.00  0.04  0.00  0.96  0.00  0.00  0.00  0.00  0.00
  YS02164001YS02001641    1.00   0.01  0.03  0.00  0.96  0.00  0.00  0.00  0.07  0.00
  YS02001641YS02001644    1.00   0.00  0.01  0.00  0.99  0.00  0.00  0.00  0.00  0.00
  YS02001647YS02001649    1.00   0.00  0.07  0.00  0.93  0.00  0.00  0.00  0.01  0.00
  YS02006553YS02006556    1.00   0.02  0.00  0.00  0.98  0.00  0.00  0.00  0.03  0.00
  YS02006556YS02006558    1.00   0.00  0.00  0.00  1.00  0.00  0.00  0.00  0.00  0.00
  YSB6556YSB1171          1.00   0.03  0.02  0.00  0.96  0.00  0.00  0.00  0.00  0.00
  YS02001907YS02006553    1.00   0.00  0.02  0.00  0.97  0.00  0.00  0.00  0.00  0.00
  YS02006558YS02006561    1.00   0.07  0.00  0.00  0.00  0.93  0.00  0.00  0.71  0.00
  YS02001633YS02163601    1.00   0.00  0.01  0.00  0.99  0.00  0.00  0.00  0.20  0.00
  YS02001644YS02001647    1.00   0.00  0.07  0.00  0.93  0.00  0.00  0.00  0.00  0.00
  YS02001745YS02001748    1.00   0.00  0.00  0.00  0.00  0.00  0.00  1.00  0.00  0.00
  YS02001748YS02001751    1.00   0.00  0.00  0.00  0.97  0.03  0.00  0.00  0.78  0.00
  YS02001751YS02001754    1.00   0.00  0.00  0.00  0.92  0.00  0.00  0.08  0.02  0.00
  YS02001754YS02001757    1.00   0.00  0.00  0.00  0.99  0.01  0.00  0.00  0.27  0.00
  YS02001882YS02001884    1.00   0.06  0.00  0.00  0.94  0.00  0.00  0.00  0.00  0.00
  YS02001884YS02001887    1.00   0.03  0.01  0.00  0.96  0.00  0.00  0.00  0.00  0.00
  YS02001890YS02001895    1.00   0.00  0.06  0.00  0.93  0.00  0.00  0.00  0.00  0.00
  YS02001895YS02001898    1.00   0.07  0.00  0.00  0.93  0.00  0.01  0.00  0.00  0.00
  YS02001898YS02001901    1.00   0.06  0.00  0.00  0.93  0.00  0.00  0.00  0.02  0.00
  YS02001901YS02001904    1.00   0.06  0.00  0.00  0.94  0.00  0.00  0.00  0.00  0.00
  YS02001904YS02001907    1.00   0.00  0.06  0.00  0.94  0.00  0.00  0.00  0.00  0.00
  YS02001887YS02001890    1.00   0.00  0.00  0.00  0.97  0.00  0.02  0.00  0.00  0.00
  YS02001652YS02001649    1.00   0.00  0.00  0.00  1.00  0.00  0.00  0.00  0.27  0.00
  YS02001655YS02001652    1.00   0.00  0.00  0.00  0.92  0.00  0.00  0.08  0.03  0.00
  YS02001658YS02001655    1.00   0.00  0.06  0.00  0.91  0.03  0.00  0.00  0.79  0.00
  YS02001661YS02001658    1.00   0.06  0.00  0.00  0.00  0.94  0.00  0.00  0.72  0.00
  YS02001664YS02001661    1.00   0.05  0.00  0.00  0.95  0.00  0.00  0.00  0.86  0.00
  YSB1154YSB6556          1.00   0.04  0.00  0.00  0.96  0.00  0.00  0.00  0.02  0.00
  YSB1174YSB1171          1.00   0.03  0.01  0.00  0.96  0.00  0.00  0.00  0.00  0.00
  YSB1171HS02004479       1.00   0.03  0.00  0.00  0.97  0.00  0.00  0.00  0.13  0.00
  HS02004881HS02006253    1.00   0.03  0.00  0.00  0.75  0.01  0.00  0.21  0.54  0.00
  YS02001793JiankangQianchi    1.00   0.00  0.00  0.00  0.06  0.94  0.00  0.00  0.07  0.00
  YS02001757CaochengTiaoxuchi    1.00   0.00  0.10  0.00  0.90  0.00  0.00  0.00  0.00  0.00
  WSF200WS02003060        1.00   0.00  0.05  0.00  0.63  0.32  0.00  0.00  0.31  0.00
  1                       1.00   0.00  0.00  0.00  0.00  1.00  0.00  0.00  0.35  0.00
  2                       1.00   0.78  0.00  0.00  0.00  0.22  0.00  0.00  0.06  0.00
  3                       1.00   0.31  0.00  0.00  0.00  0.69  0.00  0.00  0.35  0.00
  4                       1.00   1.00  0.00  0.00  0.00  0.00  0.00  0.00  0.00  0.00
  
  
  *************************
  Conduit Surcharge Summary
  *************************
  
  ----------------------------------------------------------------------------
                                                           Hours        Hours 
                         --------- Hours Full --------   Above Full   Capacity
  Conduit                Both Ends  Upstream  Dnstream   Normal Flow   Limited
  ----------------------------------------------------------------------------
  WS02006229WS02006228        0.81      0.94      0.81      3.47         0.81
  WS02006256WS02006235        5.59      5.59      7.67      2.43         0.01
  WS02006252WS02006251        0.48      0.48      1.59      1.12         0.01
  WS02006251WS02006249        0.01      0.01      0.01      0.48         0.01
  WS02006249WS02006248        0.01      0.01      0.01      3.40         0.01
  WS02006247WS02006245        0.01      0.01      0.01      4.34         0.01
  WS02006243WS02006242        0.01      0.01      0.44      0.01         0.01
  WS02006242WS02006240        0.01      0.01      0.68      1.57         0.01
  WS02006240WS02006239        0.15      0.15      0.18      0.01         0.01
  WS02006239WS02006238        0.60      0.60      0.66      0.01         0.01
  WS02006238WS02006235        0.58      0.58      0.91      0.01         0.01
  WS02006235WS02006234        0.01      0.01      0.46      5.52         0.01
  WS02006234WS02006232        0.21      0.21      0.98      0.01         0.01
  WS02006232WS02006231        0.01      0.01      0.98      0.01         0.01
  WS02006231WS02006230        0.01      0.01      0.01      5.63         0.01
  WS02006230WS02006229        2.08      2.95      2.08      5.73         2.08
  WS02006228WS02006109        0.86      1.37      0.86      4.69         0.86
  WS02006111WS02006112        0.01      0.01      3.66      0.01         0.01
  WS02006110WS02006113        0.01      0.01      1.16      0.01         0.01
  WS02006109WS02006110        0.01      0.01      1.37      0.01         0.01
  WS02004404WS02004405        0.01      0.01      0.01      5.47         0.01
  WS02003072WS02003073        0.01      0.01      0.01      4.50         0.01
  YS02001793JiankangQianchi        0.01      0.01      0.09      0.01         0.01
  
  
  ***************
  Pumping Summary
  ***************
  
  ---------------------------------------------------------------------------------------------------------
                                                  Min       Avg       Max     Total     Power    % Time Off
                        Percent   Number of      Flow      Flow      Flow    Volume     Usage    Pump Curve
  Pump                 Utilized   Start-Ups       LPS       LPS       LPS  10^6 ltr     Kw-hr    Low   High
  ---------------------------------------------------------------------------------------------------------
  CC-Pump-1               68.43           2      0.00    124.10    200.00     2.289     10.16    0.0  100.0
  CC-Pump-2               55.66           6      0.00    110.76    200.00     1.669      7.53    0.0  100.0
  JK-Pump-1               87.22           6      0.00     90.10    201.60     1.635     31.98    0.0    0.0
  JK-Pump-2               87.24           5      0.00     95.28    300.00     1.801     34.53    0.0    0.0
  XR-Pump-1               89.33           9      0.00     62.72     95.00     1.596     22.02    0.0    0.0
  XR-Pump-2               80.82          10      0.00     66.20     95.00     1.539     21.83    0.0    0.0
  XR-Pump-3               91.47           9      0.00     64.21     95.00     1.653     22.27    0.0    0.0
  XR-Pump-4               82.97           5      0.00     64.46     95.00     1.596     21.21    0.0    0.0
  

  Analysis begun on:  Tue Dec 21 15:46:12 2021
  Analysis ended on:  Tue Dec 21 15:46:14 2021
  Total elapsed time: 00:00:02