
  EPA STORM WATER MANAGEMENT MODEL - VERSION 5.1 (Build 5.3.0.dev0)
  --------------------------------------------------------------

  WARNING 04: minimum elevation drop used for Conduit WS02004404WS02004405
  WARNING 03: negative offset ignored for Link YS02001904YS02001907
  
  *********************************************************
  NOTE: The summary statistics displayed in this report are
  based on results found at every computational time step,  
  not just on results from each reporting time step.
  *********************************************************
  
  ****************
  Analysis Options
  ****************
  Flow Units ............... LPS
  Process Models:
    Rainfall/Runoff ........ YES
    RDII ................... NO
    Snowmelt ............... NO
    Groundwater ............ NO
    Flow Routing ........... YES
    Ponding Allowed ........ NO
    Water Quality .......... NO
  Infiltration Method ...... HORTON
  Flow Routing Method ...... DYNWAVE
  Surcharge Method ......... EXTRAN
  Starting Date ............ 08/28/2015 08:00:00
  Ending Date .............. 08/28/2015 15:50:00
  Antecedent Dry Days ...... 8.0
  Report Time Step ......... 00:01:00
  Wet Time Step ............ 00:01:00
  Dry Time Step ............ 00:01:00
  Routing Time Step ........ 5.00 sec
  Variable Time Step ....... YES
  Maximum Trials ........... 8
  Number of Threads ........ 4
  Head Tolerance ........... 0.001500 m
  
  
  **************************        Volume         Depth
  Runoff Quantity Continuity     hectare-m            mm
  **************************     ---------       -------
  Total Precipitation ......         2.813         6.158
  Evaporation Loss .........         0.000         0.000
  Infiltration Loss ........         0.708         1.549
  Surface Runoff ...........         1.211         2.652
  Final Storage ............         0.894         1.957
  Continuity Error (%) .....        -0.018
  
  
  **************************        Volume        Volume
  Flow Routing Continuity        hectare-m      10^6 ltr
  **************************     ---------     ---------
  Dry Weather Inflow .......         0.616         6.165
  Wet Weather Inflow .......         1.211        12.107
  Groundwater Inflow .......         0.000         0.000
  RDII Inflow ..............         0.000         0.000
  External Inflow ..........         0.102         1.024
  External Outflow .........         1.729        17.291
  Flooding Loss ............         0.038         0.384
  Evaporation Loss .........         0.000         0.000
  Exfiltration Loss ........         0.000         0.000
  Initial Stored Volume ....         0.076         0.761
  Final Stored Volume ......         0.360         3.604
  Continuity Error (%) .....        -6.098
  
  
  *************************
  Highest Continuity Errors
  *************************
  Node JK-storage (-30.21%)
  Node HS02004842 (27.70%)
  Node YS02001884 (21.84%)
  Node YS02001774 (10.54%)
  Node YSB1171 (6.63%)
  
  
  ***************************
  Time-Step Critical Elements
  ***************************
  Link 3 (47.40%)
  Link WS02006252WS02006251 (37.82%)
  Link WS02006238WS02006235 (7.23%)
  Link WS02006280WS02006229 (1.77%)
  Link WS02006229WS02006228 (1.46%)
  
  
  ********************************
  Highest Flow Instability Indexes
  ********************************
  Link WS02006113WS02006111 (43)
  Link WS02006111WS02006112 (19)
  Link YS02006558YS02006561 (15)
  Link YS02164001YS02001641 (9)
  Link YS02001644YS02001647 (8)
  
  
  *************************
  Routing Time Step Summary
  *************************
  Minimum Time Step           :     0.06 sec
  Average Time Step           :     0.89 sec
  Maximum Time Step           :     5.00 sec
  Percent in Steady State     :    -0.00
  Average Iterations per Step :     3.04
  Percent Not Converging      :    12.68
  
  
  ***************************
  Subcatchment Runoff Summary
  ***************************
  
  ------------------------------------------------------------------------------------------------------------------------------
                            Total      Total      Total      Total     Imperv       Perv      Total       Total     Peak  Runoff
                           Precip      Runon       Evap      Infil     Runoff     Runoff     Runoff      Runoff   Runoff   Coeff
  Subcatchment                 mm         mm         mm         mm         mm         mm         mm    10^6 ltr      LPS
  ------------------------------------------------------------------------------------------------------------------------------
  sub0                       6.16       0.00       0.00       0.43       4.46       0.00       4.46        0.00     1.63   0.725
  sub1                       6.16       0.00       0.00       0.68       4.23       0.00       4.23        0.03     8.33   0.686
  sub2                       6.16       0.00       0.00       2.28       2.97       0.00       2.97        0.03     7.33   0.483
  sub3                       6.16       0.00       0.00       2.28       2.94       0.00       2.94        0.07    14.99   0.477
  sub4                       6.16       0.00       0.00       0.68       4.09       0.00       4.09        0.09    16.74   0.664
  sub5                       6.16       0.00       0.00       0.43       4.42       0.00       4.42        0.05    14.82   0.717
  sub7                       6.16       0.00       0.00       0.55       4.35       0.00       4.35        0.01     5.28   0.706
  sub8                       6.16       0.00       0.00       0.55       4.34       0.00       4.34        0.03     9.28   0.705
  sub9                       6.16       0.00       0.00       0.55       4.34       0.00       4.34        0.02     6.88   0.704
  sub10                      6.16       0.00       0.00       0.49       4.37       0.00       4.37        0.05    14.82   0.710
  sub11                      6.16       0.00       0.00       0.49       4.39       0.00       4.39        0.05    17.48   0.713
  sub12                      6.16       0.00       0.00       0.80       4.17       0.00       4.17        0.04    14.98   0.677
  sub14                      6.16       0.00       0.00       0.55       4.34       0.00       4.34        0.04    13.43   0.704
  sub15                      6.16       0.00       0.00       1.85       3.33       0.00       3.33        0.06    18.19   0.541
  sub16                      6.16       0.00       0.00       2.03       3.21       0.00       3.21        0.03    13.11   0.521
  sub17                      6.16       0.00       0.00       1.97       3.25       0.00       3.25        0.03    10.58   0.528
  sub22                      6.16       0.00       0.00       2.65       2.72       0.00       2.72        0.17    59.90   0.442
  sub23                      6.16       0.00       0.00       2.28       3.01       0.00       3.01        0.14    51.08   0.489
  sub60                      6.16       0.00       0.00       0.74       2.96       0.00       2.96        0.90    83.90   0.481
  sub61                      6.16       0.00       0.00       1.05       3.16       0.00       3.16        0.97   105.37   0.513
  sub62                      6.16       0.00       0.00       0.49       3.39       0.00       3.39        1.04   107.63   0.550
  sub63                      6.16       0.00       0.00       1.79       2.81       0.00       2.81        0.85    98.45   0.456
  sub64                      6.16       0.00       0.00       0.92       2.83       0.00       2.83        0.86    79.70   0.459
  sub65                      6.16       0.00       0.00       0.80       2.86       0.00       2.86        0.88    80.88   0.465
  sub66                      6.16       0.00       0.00       1.79       2.47       0.00       2.47        0.76    73.04   0.401
  sub67                      6.16       0.00       0.00       0.49       3.72       0.00       3.72        1.15   138.48   0.603
  sub68                      6.16       0.00       0.00       0.86       3.36       0.00       3.36        1.03   116.57   0.545
  sub69                      6.16       0.00       0.00       0.92       3.61       0.00       3.61        0.84   116.22   0.587
  sub70                      6.16       3.69       0.00       3.35       4.46       0.00       4.46        1.02    93.64   0.453
  sub71                      6.16       0.00       0.00       0.49       3.24       0.00       3.24        0.77    75.09   0.527
  sub72                      6.16       0.00       0.00       0.43       2.30       0.00       2.30        0.47    35.50   0.374
  sub73                      6.16       4.34       0.00       3.57       4.56       0.00       4.56        1.07    80.50   0.434
  sub74                      6.16       0.00       0.00       4.62       1.09       0.00       1.09        0.44    64.97   0.177
  
  
  ******************
  Node Depth Summary
  ******************
  
  ---------------------------------------------------------------------------------
                                 Average  Maximum  Maximum  Time of Max    Reported
                                   Depth    Depth      HGL   Occurrence   Max Depth
  Node                 Type       Meters   Meters   Meters  days hr:min      Meters
  ---------------------------------------------------------------------------------
  WS02001211           JUNCTION     0.65     0.76     5.60     0  04:21        0.76
  WS02001212           JUNCTION     0.38     0.47     5.53     0  04:22        0.47
  WS02001213           JUNCTION     0.61     0.71     5.47     0  04:23        0.71
  WS02003069           JUNCTION     0.43     0.54     5.12     0  02:36        0.54
  WS02003072           JUNCTION     0.49     0.60     4.97     0  02:36        0.60
  WS02003073           JUNCTION     0.30     0.37     4.43     0  02:37        0.37
  WS02003060           JUNCTION     0.38     0.47     5.41     0  02:35        0.47
  WS02003066           JUNCTION     0.23     0.30     5.85     0  02:35        0.30
  WS02003059           JUNCTION     0.66     0.76     5.45     0  04:23        0.76
  WS02003067           JUNCTION     0.57     0.70     6.02     0  02:35        0.70
  WS02004401           JUNCTION     0.66     0.86     6.86     0  02:31        0.86
  WS02004402           JUNCTION     0.70     0.89     6.85     0  02:31        0.89
  WS02004403           JUNCTION     0.72     0.90     6.83     0  02:31        0.90
  WS02004404           JUNCTION     0.79     0.97     6.82     0  02:32        0.97
  WS02004406           JUNCTION     0.80     0.96     6.79     0  02:32        0.96
  WS02004409           JUNCTION     0.48     0.67     6.44     0  02:35        0.67
  WS02004410           JUNCTION     0.50     0.69     6.41     0  02:35        0.69
  WS02004411           JUNCTION     0.52     0.70     6.38     0  02:34        0.70
  WS02004412           JUNCTION     0.53     0.70     6.34     0  02:35        0.70
  WS02004413           JUNCTION     0.69     0.86     6.33     0  02:35        0.86
  WS02004405           JUNCTION     0.79     0.96     6.81     0  02:32        0.96
  WS02006109           JUNCTION     0.75     1.00     7.62     0  02:25        0.99
  WS02006110           JUNCTION     0.74     0.94     7.52     0  02:25        0.93
  WS02006111           JUNCTION     0.22     0.29     7.00     0  02:26        0.29
  WS02006112           JUNCTION     0.83     1.07     6.95     0  02:36        1.06
  WS02006113           JUNCTION     0.34     0.46     7.36     0  02:26        0.46
  WS02006115           JUNCTION     0.56     0.76     6.90     0  02:31        0.76
  WS02006116           JUNCTION     0.64     0.84     6.88     0  02:31        0.84
  WS02006230           JUNCTION     0.72     1.05     7.80     0  02:25        1.05
  WS02006231           JUNCTION     0.48     0.72     7.85     0  02:25        0.71
  WS02006232           JUNCTION     0.62     0.85     7.89     0  02:26        0.84
  WS02006234           JUNCTION     0.54     0.79     7.95     0  02:26        0.78
  WS02006235           JUNCTION     0.57     0.82     7.98     0  02:24        0.82
  WS02006238           JUNCTION     0.60     0.85     7.99     0  02:24        0.84
  WS02006240           JUNCTION     0.49     0.78     8.07     0  02:24        0.76
  WS02006242           JUNCTION     0.55     0.84     8.11     0  02:24        0.83
  WS02006243           JUNCTION     0.43     0.73     8.15     0  02:25        0.72
  WS02006245           JUNCTION     0.41     0.70     8.18     0  02:25        0.68
  WS02006247           JUNCTION     0.43     0.71     8.21     0  02:25        0.70
  WS02006248           JUNCTION     0.38     0.64     8.23     0  02:25        0.62
  WS02006249           JUNCTION     0.41     0.64     8.23     0  02:25        0.63
  WS02006239           JUNCTION     0.55     0.83     8.04     0  02:24        0.81
  WS02006251           JUNCTION     0.40     0.67     8.34     0  02:26        0.67
  WS02006252           JUNCTION     0.37     0.59     8.83     0  05:06        0.58
  WS02006253           JUNCTION     0.43     0.70     8.34     0  02:27        0.70
  WS02006256           JUNCTION     1.04     2.35     9.28     0  00:00        1.21
  WS02004138           JUNCTION     0.15     0.20     7.45     0  00:00        0.19
  WS02004407           JUNCTION     0.22     0.30     6.61     0  02:32        0.30
  WS02006228           JUNCTION     0.74     1.04     7.69     0  02:25        1.03
  WS02006229           JUNCTION     0.72     1.05     7.74     0  02:25        1.03
  WS02006280           JUNCTION     0.06     0.15     8.42     0  02:17        0.15
  WS02006284           JUNCTION     0.35     0.49     8.89     0  02:17        0.49
  WS02006287           JUNCTION     0.08     0.22     9.18     0  02:17        0.22
  WSF200               JUNCTION     0.21     0.32     5.55     0  02:35        0.31
  HS02004901           JUNCTION     0.11     0.24    10.06     0  02:15        0.24
  HS02004881           JUNCTION     0.01     0.03     9.05     0  02:16        0.03
  HS02004876           JUNCTION     0.04     0.10     9.13     0  02:14        0.10
  HS02004870           JUNCTION     0.01     0.04     9.33     0  02:17        0.04
  HS02004862           JUNCTION     0.01     0.05     9.43     0  02:18        0.05
  HS02004856           JUNCTION     0.07     0.11     9.53     0  02:17        0.11
  HS02004852           JUNCTION     0.01     0.03     9.54     0  02:18        0.03
  HS02004848           JUNCTION     0.01     0.03     9.63     0  02:16        0.03
  HS02004842           JUNCTION     0.33     0.36     9.63     0  02:16        0.36
  HS02004837           JUNCTION     0.03     0.05     9.63     0  02:16        0.05
  HS02004830           JUNCTION     0.04     0.06     9.53     0  02:17        0.06
  HS02004824           JUNCTION     0.02     0.04     9.44     0  02:20        0.04
  HS02004817           JUNCTION     0.43     0.53     9.38     0  02:17        0.53
  HS02004807           JUNCTION     0.11     0.21     9.38     0  02:17        0.21
  HS02004802           JUNCTION     0.15     0.25     9.37     0  02:17        0.25
  HS02004799           JUNCTION     0.10     0.27     9.48     0  02:15        0.27
  HS02004792           JUNCTION     0.02     0.10     9.63     0  02:15        0.10
  HS02004788           JUNCTION     0.02     0.08     9.98     0  02:16        0.08
  HS02004785           JUNCTION     0.04     0.14    10.04     0  02:15        0.14
  HS02004777           JUNCTION     0.13     0.26    10.06     0  02:15        0.26
  HS02004770           JUNCTION     0.10     0.23    10.06     0  02:15        0.23
  HS02004480           JUNCTION     0.07     0.21     9.45     0  02:16        0.21
  HS02004479           JUNCTION     0.10     0.25     9.45     0  02:16        0.25
  HS02004478           JUNCTION     0.05     0.13     9.36     0  02:17        0.13
  YS02001745           JUNCTION     0.12     0.34     7.85     0  04:53        0.32
  YS02001748           JUNCTION     0.45     0.76     7.83     0  04:53        0.76
  YS02001751           JUNCTION     0.63     1.43     8.31     0  04:54        1.24
  YS02001754           JUNCTION     0.88     1.48     8.08     0  04:54        1.42
  YS02001762           JUNCTION     1.08     1.58     7.98     0  04:52        1.53
  YS02001765           JUNCTION     1.03     1.57     8.02     0  04:52        1.48
  YS02001767           JUNCTION     1.00     1.58     8.07     0  04:52        1.49
  YS02001770           JUNCTION     0.99     1.64     8.13     0  04:52        1.56
  YS02001774           JUNCTION     1.06     1.72     8.14     0  04:52        1.65
  YS02001779           JUNCTION     0.81     1.50     8.18     0  06:16        1.40
  YS02001882           JUNCTION     0.30     0.48     7.20     0  02:52        0.48
  YS02001884           JUNCTION     0.39     0.58     7.20     0  02:53        0.58
  YS02001759           JUNCTION     1.11     1.57     7.93     0  04:54        1.57
  YS02001887           JUNCTION     0.47     0.66     7.20     0  02:52        0.66
  YS02001890           JUNCTION     0.50     0.69     7.19     0  02:52        0.69
  YS02001898           JUNCTION     0.27     0.44     7.18     0  02:52        0.44
  YS02001901           JUNCTION     0.39     0.57     7.18     0  02:52        0.57
  YS02001904           JUNCTION     0.36     0.54     7.17     0  02:52        0.54
  YS02001907           JUNCTION     0.69     0.89     7.18     0  02:53        0.89
  YS02001910           JUNCTION     0.48     0.67     7.18     0  02:53        0.67
  YS02001915           JUNCTION     0.28     0.46     7.18     0  02:52        0.46
  YS02001918           JUNCTION     0.08     0.11     7.17     0  02:52        0.11
  YS02001619           JUNCTION     0.59     0.88     7.80     0  04:50        0.87
  YS02001629           JUNCTION     0.94     1.28     7.82     0  04:51        1.27
  YS02001641           JUNCTION     1.05     1.45     7.89     0  04:54        1.45
  YS02001644           JUNCTION     1.05     1.46     7.89     0  04:54        1.46
  YS02001652           JUNCTION     0.90     1.36     7.96     0  04:02        1.24
  YS02001655           JUNCTION     0.66     1.00     7.85     0  04:59        0.99
  YS02001920           JUNCTION     0.18     0.21     7.22     0  03:02        0.21
  YS02001923           JUNCTION     0.07     0.09     7.35     0  03:02        0.09
  YS02001926           JUNCTION     0.14     0.18     7.63     0  03:01        0.18
  YS02001929           JUNCTION     0.07     0.09     7.78     0  03:01        0.09
  YS02001658           JUNCTION     0.39     0.71     7.85     0  04:50        0.70
  YS02001661           JUNCTION     0.20     0.42     7.82     0  04:50        0.42
  YS02001664           JUNCTION     0.07     0.12     8.05     0  02:43        0.12
  YS02001622           JUNCTION     0.61     0.89     7.80     0  04:50        0.89
  YS02001633           JUNCTION     1.03     1.39     7.85     0  04:54        1.39
  YS02001649           JUNCTION     1.09     1.50     7.89     0  04:54        1.50
  YS02001757           JUNCTION     1.21     1.68     7.94     0  04:54        1.67
  YS02001895           JUNCTION     0.26     0.44     7.19     0  02:52        0.44
  YS02001625           JUNCTION     0.90     1.19     7.80     0  04:56        1.19
  YS02163301           JUNCTION     0.97     1.31     7.83     0  04:56        1.31
  YS02163601           JUNCTION     1.09     1.47     7.87     0  04:54        1.47
  YS02164001           JUNCTION     1.03     1.42     7.88     0  04:54        1.42
  YS02001647           JUNCTION     0.88     1.29     7.90     0  04:54        1.28
  YSB1154              JUNCTION     0.24     0.40     9.45     0  02:16        0.40
  YSB6556              JUNCTION     0.13     0.29     9.45     0  02:16        0.29
  YSB1174              JUNCTION     0.19     0.35     9.45     0  02:16        0.34
  YSB1171              JUNCTION     0.39     0.55     9.45     0  02:16        0.55
  YS02006553           JUNCTION     0.70     0.89     7.17     0  02:52        0.89
  YS02006561           JUNCTION     0.15     0.24     6.90     0  02:53        0.24
  YS02006556           JUNCTION     0.67     0.86     7.17     0  02:52        0.86
  YS02006558           JUNCTION     0.71     0.90     7.17     0  02:52        0.90
  YS02001783           JUNCTION     0.25     0.43     6.57     0  02:53        0.43
  YS02001784           JUNCTION     0.28     0.45     6.52     0  02:54        0.45
  YS02001786           JUNCTION     0.24     0.38     6.41     0  02:54        0.38
  YS02001788           JUNCTION     0.18     0.29     6.27     0  02:54        0.29
  YS02001790           JUNCTION     0.21     0.35     6.00     0  02:54        0.35
  YS02001791           JUNCTION     0.14     0.23     5.70     0  03:00        0.23
  YS02001793           JUNCTION     0.09     0.15     4.98     0  02:47        0.15
  WS02004139           JUNCTION     0.59     0.71     5.62     0  04:21        0.71
  WSC                  OUTFALL      0.29     0.37     1.04     0  02:37        0.37
  3                    OUTFALL      0.08     0.23     6.23     0  00:00        0.21
  4                    OUTFALL      0.03     0.13     7.13     0  02:25        0.13
  5                    OUTFALL      0.00     0.00     5.00     0  00:00        0.00
  JK-storage           STORAGE      0.16     3.00     3.80     0  00:00        2.39
  CC-storage           STORAGE      0.44     0.75     7.75     0  04:52        0.75
  XR-storage           STORAGE      6.48     7.72     5.72     0  03:34        7.72
  
  
  *******************
  Node Inflow Summary
  *******************
  
  -------------------------------------------------------------------------------------------------
                                  Maximum  Maximum                  Lateral       Total        Flow
                                  Lateral    Total  Time of Max      Inflow      Inflow     Balance
                                   Inflow   Inflow   Occurrence      Volume      Volume       Error
  Node                 Type           LPS      LPS  days hr:min    10^6 ltr    10^6 ltr     Percent
  -------------------------------------------------------------------------------------------------
  WS02001211           JUNCTION      7.35   386.12     0  00:10       0.207        6.81       0.510
  WS02001212           JUNCTION      0.00   384.22     0  00:11           0        6.78       0.323
  WS02001213           JUNCTION      0.00   383.80     0  00:11           0        6.76       0.368
  WS02003069           JUNCTION      0.32   816.06     0  02:35     0.00902          14       0.232
  WS02003072           JUNCTION      0.00   815.94     0  02:36           0          14       0.280
  WS02003073           JUNCTION      1.82   817.72     0  02:37      0.0514          14       0.314
  WS02003060           JUNCTION     16.53   815.63     0  02:35       0.466          14       0.221
  WS02003066           JUNCTION      0.00   545.08     0  02:35           0         6.9       0.072
  WS02003059           JUNCTION      0.00   382.09     0  00:12           0        6.73       0.555
  WS02003067           JUNCTION      0.00   544.97     0  02:35           0        6.91       0.147
  WS02004401           JUNCTION      0.00   551.42     0  02:30           0        7.16       0.334
  WS02004402           JUNCTION      0.00   550.69     0  02:31           0        7.14       0.312
  WS02004403           JUNCTION      0.00   549.97     0  02:32           0        7.12       0.280
  WS02004404           JUNCTION      0.16   550.25     0  02:32     0.00457         7.1       0.207
  WS02004406           JUNCTION      0.00   550.15     0  02:32           0        7.07       0.505
  WS02004409           JUNCTION      0.00   549.74     0  02:32           0        7.02       0.271
  WS02004410           JUNCTION      0.00   547.18     0  02:33           0           7       0.300
  WS02004411           JUNCTION      0.00   546.12     0  02:34           0        6.98       0.304
  WS02004412           JUNCTION      0.00   545.47     0  02:34           0        6.96       0.323
  WS02004413           JUNCTION      0.00   545.11     0  02:35           0        6.94       0.471
  WS02004405           JUNCTION      0.04   550.04     0  02:32     0.00107        7.09       0.313
  WS02006109           JUNCTION      1.23   559.25     0  02:25      0.0347        7.27       0.313
  WS02006110           JUNCTION      0.00   559.36     0  02:25           0        7.25       0.297
  WS02006111           JUNCTION      0.00   582.11     0  02:26           0        7.22       0.068
  WS02006112           JUNCTION     10.58   571.49     0  02:26      0.0279        7.24       0.419
  WS02006113           JUNCTION      0.00   561.14     0  02:25           0        7.23       0.164
  WS02006115           JUNCTION      0.00   568.21     0  02:27           0        7.21       0.329
  WS02006116           JUNCTION      0.00   554.51     0  02:30           0        7.19       0.313
  WS02006230           JUNCTION     10.28   395.51     0  05:26        0.29        6.33       0.243
  WS02006231           JUNCTION      0.00   385.41     0  05:24           0        6.06       0.230
  WS02006232           JUNCTION      0.00   385.41     0  05:24           0        6.08       0.290
  WS02006234           JUNCTION      0.00   385.65     0  05:24           0        6.09       0.164
  WS02006235           JUNCTION      0.00   387.53     0  04:12           0        6.12       0.202
  WS02006238           JUNCTION      0.00   330.25     0  06:40           0        4.18       0.205
  WS02006240           JUNCTION      0.00   332.75     0  06:40           0        4.19       0.373
  WS02006242           JUNCTION      0.00   342.00     0  02:23           0         4.2       0.447
  WS02006243           JUNCTION      0.00   358.25     0  02:22           0        4.19      -0.113
  WS02006245           JUNCTION      0.00   368.67     0  02:22           0         4.2       0.375
  WS02006247           JUNCTION      0.00   374.99     0  02:22           0        4.21       0.251
  WS02006248           JUNCTION      0.00   381.41     0  02:22           0        4.22       0.141
  WS02006249           JUNCTION      0.00   445.44     0  02:27           0        4.85       0.351
  WS02006239           JUNCTION      0.00   331.61     0  06:40           0        4.18       0.343
  WS02006251           JUNCTION      0.08   448.02     0  02:27     0.00217         4.9       0.286
  WS02006252           JUNCTION      0.00   400.00     0  02:20           0        4.71       0.011
  WS02006253           JUNCTION      1.63    53.27     0  02:19     0.00361       0.195       4.401
  WS02006256           JUNCTION      0.00   600.00     0  00:00           0        4.69       0.050
  WS02004138           JUNCTION      0.00   380.00     0  00:00           0        6.64       0.086
  WS02004407           JUNCTION      0.00   549.86     0  02:32           0        7.03       0.123
  WS02006228           JUNCTION      0.00   557.93     0  02:25           0        7.25       0.225
  WS02006229           JUNCTION      0.00   561.23     0  02:25           0        7.27       0.178
  WS02006280           JUNCTION      0.00   236.26     0  02:17           0       0.948       0.007
  WS02006284           JUNCTION      0.10   236.24     0  02:17      0.0027       0.949       0.111
  WS02006287           JUNCTION      0.00   236.12     0  02:17           0       0.947       0.077
  WSF200               JUNCTION      0.00   545.12     0  02:35           0        6.89       0.069
  HS02004901           JUNCTION     13.11    13.11     0  02:09      0.0336      0.0337       5.501
  HS02004881           JUNCTION      5.28    45.21     0  02:16      0.0146       0.155       0.183
  HS02004876           JUNCTION      8.33    40.29     0  02:17      0.0281        0.14       0.378
  HS02004870           JUNCTION      9.28    32.14     0  02:16      0.0277       0.112       0.095
  HS02004862           JUNCTION      7.53    23.50     0  02:17      0.0333      0.0849       0.199
  HS02004856           JUNCTION      6.88    16.03     0  02:16      0.0208       0.053       2.790
  HS02004852           JUNCTION      0.00     9.61     0  02:16           0      0.0322       0.159
  HS02004848           JUNCTION     14.99    14.99     0  02:19      0.0661      0.0661       0.066
  HS02004842           JUNCTION      0.00     5.94     0  02:29           0      0.0469      38.315
  HS02004837           JUNCTION     21.17    26.12     0  02:16       0.227       0.261       0.312
  HS02004830           JUNCTION      0.15    26.25     0  02:16     0.00423       0.252       0.492
  HS02004824           JUNCTION     16.79    42.82     0  02:20      0.0866       0.337       0.160
  HS02004817           JUNCTION      0.60    43.41     0  02:20      0.0169       0.353       4.950
  HS02004807           JUNCTION     17.48    59.27     0  02:18       0.051       0.388       1.102
  HS02004802           JUNCTION      0.00    59.63     0  02:20           0       0.383       1.070
  HS02004799           JUNCTION     13.43   150.92     0  02:15      0.0412       0.496       0.457
  HS02004792           JUNCTION     60.18   137.81     0  02:14        0.18       0.455       0.090
  HS02004788           JUNCTION     19.86    80.20     0  02:15       0.104       0.277       0.140
  HS02004785           JUNCTION      0.15    60.78     0  02:14     0.00423       0.174       0.279
  HS02004777           JUNCTION      0.03    61.24     0  02:13    0.000846       0.175       3.056
  HS02004770           JUNCTION     51.08    62.61     0  02:11       0.143       0.175       1.796
  HS02004480           JUNCTION      0.00   177.84     0  02:16           0        0.58       0.128
  HS02004479           JUNCTION      0.00    27.60     0  02:17           0       0.096       0.766
  HS02004478           JUNCTION      0.00   236.11     0  02:17           0       0.948       0.066
  YS02001745           JUNCTION     83.91   152.18     0  04:53       0.897       0.935       0.121
  YS02001748           JUNCTION      0.04   253.60     0  04:54     0.00127        1.07       0.410
  YS02001751           JUNCTION      0.01   278.21     0  04:53     0.00031        1.03       1.080
  YS02001754           JUNCTION      0.26   113.05     0  04:57     0.00733       0.908       1.720
  YS02001762           JUNCTION      0.00   134.50     0  02:36           0       0.999       2.070
  YS02001765           JUNCTION      0.00   134.55     0  02:36           0       0.999       2.298
  YS02001767           JUNCTION      0.54   134.35     0  02:53      0.0151        1.01       3.226
  YS02001770           JUNCTION    107.79   134.25     0  02:49        1.04        1.15       2.269
  YS02001774           JUNCTION      0.00    50.30     0  02:15           0       0.227      11.786
  YS02001779           JUNCTION      0.01    50.63     0  06:32    0.000141       0.105       9.603
  YS02001882           JUNCTION      0.00     4.69     0  02:07           0     0.00579      42.030
  YS02001884           JUNCTION      0.00    13.57     0  02:07           0      0.0227      27.943
  YS02001759           JUNCTION    105.41   226.52     0  02:50       0.974        1.93       1.166
  YS02001887           JUNCTION    138.93   139.11     0  02:43        1.16        1.17       0.623
  YS02001890           JUNCTION      0.00   139.34     0  02:41           0        1.15       0.697
  YS02001898           JUNCTION      0.00   138.64     0  02:42           0        1.13       0.199
  YS02001901           JUNCTION      0.00   138.39     0  02:40           0        1.13       0.497
  YS02001904           JUNCTION      0.00   137.12     0  02:43           0        1.13       0.462
  YS02001907           JUNCTION      0.00   250.44     0  02:54           0        2.43       0.921
  YS02001910           JUNCTION      0.00   114.94     0  03:00           0        1.31       0.791
  YS02001915           JUNCTION     75.11   113.67     0  02:59       0.766        1.31       0.356
  YS02001918           JUNCTION      0.00    38.39     0  03:02           0       0.547       0.215
  YS02001619           JUNCTION     73.04    73.04     0  02:57       0.756       0.756       0.724
  YS02001629           JUNCTION      0.00   114.36     0  03:17           0       0.726       2.384
  YS02001641           JUNCTION      0.00   163.93     0  03:06           0        1.51       1.318
  YS02001644           JUNCTION     79.74   244.77     0  03:06       0.861        2.35       1.071
  YS02001652           JUNCTION      0.00   123.69     0  03:02           0       0.866       1.664
  YS02001655           JUNCTION      0.15   221.58     0  05:02     0.00434       0.969       1.348
  YS02001920           JUNCTION      2.87    38.38     0  03:02      0.0809       0.549       0.383
  YS02001923           JUNCTION      0.04    35.51     0  03:01     0.00106       0.469       0.068
  YS02001926           JUNCTION      0.05    35.54     0  03:01     0.00147        0.47       0.480
  YS02001929           JUNCTION     35.50    35.50     0  03:01       0.469       0.469       0.066
  YS02001658           JUNCTION      0.00   235.31     0  04:49           0        1.05       0.445
  YS02001661           JUNCTION      0.00   175.53     0  04:50           0        0.94       0.089
  YS02001664           JUNCTION     98.45    98.45     0  02:43        0.85        0.85       0.015
  YS02001622           JUNCTION      0.00    93.74     0  03:21           0       0.772       2.106
  YS02001633           JUNCTION     81.08   175.16     0  03:22       0.886        1.56       1.824
  YS02001649           JUNCTION      0.00   347.88     0  03:02           0        3.12       1.167
  YS02001757           JUNCTION      0.00   612.64     0  02:54           0        5.83       1.595
  YS02001895           JUNCTION      0.00   138.30     0  02:43           0        1.14       0.340
  YS02001625           JUNCTION      0.00   111.29     0  04:51           0       0.775       4.158
  YS02163301           JUNCTION      0.00   119.98     0  03:22           0       0.701       3.109
  YS02163601           JUNCTION      0.11   169.28     0  02:46      0.0031        1.53       1.936
  YS02164001           JUNCTION      0.00   167.89     0  02:46           0        1.51       1.167
  YS02001647           JUNCTION      0.00   247.08     0  03:06           0        2.31       0.866
  YSB1154              JUNCTION     14.82    14.82     0  02:14        0.05      0.0514       2.889
  YSB6556              JUNCTION      0.00    14.72     0  02:16           0      0.0524       2.435
  YSB1174              JUNCTION     14.98    14.98     0  02:09      0.0364      0.0374       3.553
  YSB1171              JUNCTION      0.00    27.51     0  02:15           0      0.0954       7.098
  YS02006553           JUNCTION      0.00   250.49     0  02:53           0        2.42       0.597
  YS02006561           JUNCTION      0.00   376.09     0  02:52           0        3.42       0.019
  YS02006556           JUNCTION      0.00   250.27     0  02:53           0        2.42       0.431
  YS02006558           JUNCTION    117.45   366.56     0  02:53        1.06        3.45       0.134
  YS02001783           JUNCTION      0.00   366.33     0  02:53           0        3.42       0.046
  YS02001784           JUNCTION      1.06   367.26     0  02:54      0.0299        3.45       0.076
  YS02001786           JUNCTION      0.06   367.27     0  02:54     0.00159        3.45       0.074
  YS02001788           JUNCTION      0.07   367.38     0  02:54       0.002        3.45       0.043
  YS02001790           JUNCTION      0.15   367.60     0  02:54     0.00437        3.45       0.053
  YS02001791           JUNCTION      0.00   367.53     0  02:54           0        3.45       0.027
  YS02001793           JUNCTION      0.00   367.53     0  02:55           0        3.45       0.009
  WS02004139           JUNCTION      0.32   393.99     0  00:00     0.00905        6.64       0.602
  WSC                  OUTFALL       0.00   817.72     0  02:37           0          14       0.000
  3                    OUTFALL       0.00   597.65     0  00:00           0        2.72       0.000
  4                    OUTFALL       0.00   172.99     0  02:25           0       0.613       0.000
  5                    OUTFALL       0.00     0.00     0  00:00           0           0       0.000 ltr
  JK-storage           STORAGE       0.00   367.83     0  03:00           0         3.6     -23.199
  CC-storage           STORAGE       0.00   613.32     0  02:55           0        5.72      -0.872
  XR-storage           STORAGE     335.95   335.95     0  02:53        7.15        7.75      -0.001
  
  
  **********************
  Node Surcharge Summary
  **********************
  
  Surcharging occurs when water rises above the top of the highest conduit.
  ---------------------------------------------------------------------
                                               Max. Height   Min. Depth
                                   Hours       Above Crown    Below Rim
  Node                 Type      Surcharged         Meters       Meters
  ---------------------------------------------------------------------
  WS02006109           JUNCTION        1.70          0.177        1.643
  WS02006110           JUNCTION        0.26          0.029        1.821
  WS02006112           JUNCTION        0.54          0.067        1.613
  WS02006231           JUNCTION        0.02          0.013        1.517
  WS02006232           JUNCTION        2.15          0.152        1.328
  WS02006234           JUNCTION        0.52          0.070        1.170
  WS02006235           JUNCTION        1.12          0.107        1.183
  WS02006238           JUNCTION        1.64          0.125        1.305
  WS02006240           JUNCTION        0.51          0.072        1.318
  WS02006242           JUNCTION        1.37          0.110        0.710
  WS02006243           JUNCTION        0.03          0.016        0.754
  WS02006247           JUNCTION        0.01          0.001        0.759
  WS02006239           JUNCTION        0.55          0.092        1.198
  WS02006252           JUNCTION        2.62          0.192        0.908
  WS02006256           JUNCTION        0.01          1.050        0.000
  WS02006228           JUNCTION        1.56          0.214        1.986
  YS02001751           JUNCTION        0.01          0.427        0.773
  YS02001754           JUNCTION        1.64          0.425        0.725
  YS02001762           JUNCTION        5.18          0.582        0.568
  YS02001765           JUNCTION        4.87          0.575        0.525
  YS02001767           JUNCTION        3.84          0.584        0.446
  YS02001770           JUNCTION        3.37          0.608        0.312
  YS02001774           JUNCTION        5.09          0.720        0.330
  YS02001779           JUNCTION        0.97          0.498        0.182
  YS02001759           JUNCTION        5.27          0.570        0.640
  YS02001641           JUNCTION        5.02          0.450        0.650
  YS02001644           JUNCTION        5.04          0.463        0.457
  YS02001652           JUNCTION        2.37          0.332        0.798
  YS02001633           JUNCTION        4.48          0.373        0.687
  YS02001649           JUNCTION        5.23          0.501        0.549
  YS02001757           JUNCTION        5.38          0.680        0.530
  YS02001625           JUNCTION        2.70          0.193        0.587
  YS02163301           JUNCTION        3.50          0.315        0.715
  YS02163601           JUNCTION        5.21          0.471        0.609
  YS02164001           JUNCTION        4.86          0.421        0.679
  YS02001647           JUNCTION        2.63          0.292        0.608
  
  
  *********************
  Node Flooding Summary
  *********************
  
  Flooding refers to all water that overflows a node, whether it ponds or not.
  --------------------------------------------------------------------------
                                                             Total   Maximum
                                 Maximum   Time of Max       Flood    Ponded
                        Hours       Rate    Occurrence      Volume     Depth
  Node                 Flooded       LPS   days hr:min    10^6 ltr    Meters
  --------------------------------------------------------------------------
  WS02006256              0.01    406.11      0  00:00       0.001     0.000
  XR-storage              1.21    156.39      0  05:40       0.383     0.000
  
  
  **********************
  Storage Volume Summary
  **********************
  
  --------------------------------------------------------------------------------------------------
                         Average     Avg  Evap Exfil       Maximum     Max    Time of Max    Maximum
                          Volume    Pcnt  Pcnt  Pcnt        Volume    Pcnt     Occurrence    Outflow
  Storage Unit           1000 m3    Full  Loss  Loss       1000 m3    Full    days hr:min        LPS
  --------------------------------------------------------------------------------------------------
  JK-storage               0.008       3     0     0         0.151      52       0  00:00     600.00
  CC-storage               1.239       8     0     0         2.103      13       0  04:52     400.00
  XR-storage               0.777      84     0     0         0.926     100       0  03:34     380.00
  
  
  ***********************
  Outfall Loading Summary
  ***********************
  
  -----------------------------------------------------------
                         Flow       Avg       Max       Total
                         Freq      Flow      Flow      Volume
  Outfall Node           Pcnt       LPS       LPS    10^6 ltr
  -----------------------------------------------------------
  WSC                   99.99    563.87    817.72      13.960
  3                     88.65    154.42    597.65       2.718
  4                     39.68     70.53    172.99       0.613
  5                      0.00      0.00      0.00       0.000
  -----------------------------------------------------------
  System                57.08    788.81   1362.98      17.291
  
  
  ********************
  Link Flow Summary
  ********************
  
  -----------------------------------------------------------------------------
                                 Maximum  Time of Max   Maximum    Max/    Max/
                                  |Flow|   Occurrence   |Veloc|    Full    Full
  Link                 Type          LPS  days hr:min     m/sec    Flow   Depth
  -----------------------------------------------------------------------------
  WS02003066WSF200     CONDUIT    545.12     0  02:35      2.76    0.09    0.23
  WS02006287WS02006284 CONDUIT    236.14     0  02:17      1.70    0.11    0.23
  WS02006284WS02006280 CONDUIT    236.26     0  02:17      1.94    0.10    0.21
  WS02006280WS02006229 CONDUIT    236.26     0  02:17      3.12    0.05    0.15
  WS02006229WS02006228 CONDUIT    557.93     0  02:25      1.11    1.85    1.00
  WS02006256WS02006235 CONDUIT    177.52     0  00:01      2.73    1.88    1.00
  WS02006253WS02006251 CONDUIT     47.95     0  02:27      0.51    0.14    0.97
  WS02006252WS02006251 CONDUIT    400.44     0  06:40      3.19    1.47    1.00
  WS02006251WS02006249 CONDUIT    445.44     0  02:27      1.26    1.28    0.93
  WS02006249WS02006248 CONDUIT    381.41     0  02:22      1.26    2.09    0.89
  WS02006248WS02006247 CONDUIT    374.99     0  02:22      1.22    0.82    0.95
  WS02006247WS02006245 CONDUIT    368.67     0  02:22      1.19    2.92    0.99
  WS02006245WS02006243 CONDUIT    358.25     0  02:22      1.23    1.06    0.99
  WS02006243WS02006242 CONDUIT    342.00     0  02:23      1.05    0.73    1.00
  WS02006242WS02006240 CONDUIT    332.75     0  06:40      0.92    1.32    1.00
  WS02006240WS02006239 CONDUIT    331.61     0  06:40      0.95    1.04    1.00
  WS02006239WS02006238 CONDUIT    330.25     0  06:40      0.90    1.06    1.00
  WS02006238WS02006235 CONDUIT    328.95     0  06:40      1.32    0.73    1.00
  WS02006235WS02006234 CONDUIT    385.65     0  05:24      1.04    4.07    1.00
  WS02006234WS02006232 CONDUIT    385.41     0  05:24      1.17    0.78    1.00
  WS02006232WS02006231 CONDUIT    385.41     0  05:24      1.05    0.81    1.00
  WS02006231WS02006230 CONDUIT    385.23     0  05:26      1.34    5.84    0.98
  WS02006230WS02006229 CONDUIT    395.51     0  05:26      1.03    8.80    1.00
  WS02006228WS02006109 CONDUIT    558.02     0  02:25      1.11    2.44    1.00
  WS02006116WS02004401 CONDUIT    551.42     0  02:30      0.80    0.76    0.85
  WS02006115WS02006116 CONDUIT    554.51     0  02:30      0.91    0.71    0.77
  WS02006113WS02006111 CONDUIT    582.11     0  02:26      2.49    0.70    0.47
  WS02006112WS02006115 CONDUIT    568.21     0  02:27      0.80    0.34    0.88
  WS02006111WS02006112 CONDUIT    564.72     0  02:26      1.56    0.27    0.68
  WS02006110WS02006113 CONDUIT    561.14     0  02:25      1.32    0.51    0.79
  WS02006109WS02006110 CONDUIT    559.36     0  02:25      1.11    1.08    1.00
  WS02004411WS02004412 CONDUIT    545.47     0  02:34      0.93    0.77    0.70
  WS02004401WS02004402 CONDUIT    550.69     0  02:31      0.76    0.66    0.87
  WS02004413WS02003067 CONDUIT    544.97     0  02:35      1.12    0.23    0.59
  WS02004412WS02004413 CONDUIT    545.11     0  02:35      0.83    0.37    0.78
  WS02004410WS02004411 CONDUIT    546.12     0  02:34      0.95    0.75    0.69
  WS02004409WS02004410 CONDUIT    547.18     0  02:33      0.99    0.71    0.68
  WS02004407WS02004409 CONDUIT    549.74     0  02:32      1.50    0.19    0.49
  WS02004406WS02004407 CONDUIT    549.86     0  02:32      1.05    0.25    0.63
  WS02004405WS02004406 CONDUIT    550.15     0  02:32      0.71    1.09    0.96
  WS02004404WS02004405 CONDUIT    550.00     0  02:32      0.71    5.39    0.97
  WS02004403WS02004404 CONDUIT    550.08     0  02:32      0.72    0.40    0.94
  WS02004402WS02004403 CONDUIT    549.97     0  02:32      0.74    0.79    0.89
  WS02004139WS02001211 CONDUIT    378.77     0  00:10      0.90    0.48    0.57
  WS02004138WS02004139 CONDUIT    393.66     0  00:00      3.65    0.08    0.42
  WS02003067WS02003066 CONDUIT    545.08     0  02:35      1.22    0.17    0.42
  WS02001213WS02003059 CONDUIT    382.09     0  00:12      0.91    0.63    0.73
  WS02001212WS02001213 CONDUIT    383.80     0  00:11      1.32    0.59    0.43
  WS02001211WS02001212 CONDUIT    384.22     0  00:11      0.78    0.29    0.62
  WS02003072WS02003073 CONDUIT    815.90     0  02:37      1.64    1.76    0.45
  WS02003069WS02003072 CONDUIT    815.94     0  02:36      1.55    0.39    0.47
  WS02003060WS02003069 CONDUIT    815.74     0  02:35      1.80    0.32    0.42
  WS02003059WS02003060 CONDUIT    379.91     0  00:12      0.94    0.25    0.61
  HS02004901HS02004770 CONDUIT     12.01     0  02:14      0.05    0.05    0.34
  HS02004876HS02004881 CONDUIT     40.39     0  02:17      0.62    0.43    0.09
  HS02004870HS02004876 CONDUIT     32.12     0  02:17      0.43    0.02    0.11
  HS02004842HS02004848 CONDUIT      5.94     0  02:29      0.03    0.00    0.28
  HS02004837HS02004842 CONDUIT      6.16     0  02:30      0.41    0.00    0.29
  HS02004830HS02004837 CONDUIT     26.10     0  02:16      0.46    0.03    0.08
  HS02004824HS02004830 CONDUIT     26.24     0  02:17      0.50    0.03    0.07
  HS02004817HS02004824 CONDUIT     42.81     0  02:20      0.17    0.02    0.41
  HS02004770HS02004777 CONDUIT     61.21     0  02:13      0.25    0.11    0.35
  HS02004799HS02004480 CONDUIT    150.65     0  02:15      0.64    0.19    0.34
  HS02004792HS02004799 CONDUIT    137.72     0  02:15      0.73    0.08    0.27
  HS02004788HS02004792 CONDUIT     80.12     0  02:16      0.88    0.05    0.13
  HS02004785HS02004788 CONDUIT     60.68     0  02:15      0.55    0.46    0.16
  HS02004777HS02004785 CONDUIT     60.63     0  02:14      0.30    0.07    0.29
  HS02004480HS02004478 CONDUIT    177.80     0  02:16      1.02    0.75    0.25
  HS02004479HS02004480 CONDUIT     27.83     0  02:18      0.15    0.03    0.33
  HS02004862HS02004870 CONDUIT     23.46     0  02:18      0.50    0.03    0.07
  HS02004848HS02004852 CONDUIT      9.61     0  02:16      0.33    0.01    0.04
  HS02004856HS02004862 CONDUIT     16.00     0  02:17      0.37    0.02    0.06
  HS02004852HS02004856 CONDUIT      9.57     0  02:18      0.14    0.01    0.10
  HS02004802HS02004478 CONDUIT     60.12     0  02:20      0.32    0.05    0.27
  HS02004478WS02006287 CONDUIT    236.12     0  02:17      1.39    0.07    0.19
  HS02004817HS02004807 CONDUIT     44.09     0  02:21      0.12    0.03    0.53
  HS02004807HS02004802 CONDUIT     59.63     0  02:20      0.27    0.11    0.32
  YS02001759YS02001757 CONDUIT    228.72     0  02:47      0.29    0.16    1.00
  YS02001762YS02001759 CONDUIT    121.54     0  02:36      0.17    0.14    1.00
  YS02001765YS02001762 CONDUIT    134.50     0  02:36      0.23    0.13    1.00
  YS02001770YS02001767 CONDUIT    133.81     0  02:53      0.37    0.53    1.00
  YS02001774YS02001770 CONDUIT     50.30     0  02:15      0.13    0.03    1.00
  YS02001779YS02001774 CONDUIT     50.63     0  06:32      0.08    0.03    1.00
  YS02001649YS02001757 CONDUIT    350.61     0  03:02      0.45    0.21    1.00
  YS02001767YS02001765 CONDUIT    134.55     0  02:36      0.26    0.17    1.00
  YS02006561YS02001783 CONDUIT    366.33     0  02:53      1.86    0.19    0.41
  YS02001783YS02001784 CONDUIT    366.20     0  02:54      1.30    0.50    0.55
  YS02001784YS02001785 CONDUIT    367.22     0  02:54      1.39    0.85    0.52
  YS02001788YS02001790 CONDUIT    367.45     0  02:54      1.95    0.27    0.40
  YS02001790YS02001791 CONDUIT    367.53     0  02:54      2.26    0.40    0.36
  YS02001791YS02001793 CONDUIT    367.53     0  02:55      4.59    0.16    0.23
  YS02001910YS02001907 CONDUIT    115.49     0  03:04      0.49    0.07    0.77
  YS02001786YS02001788 CONDUIT    367.31     0  02:54      1.83    0.71    0.42
  YS02001915YS02001910 CONDUIT    114.94     0  03:00      0.44    0.06    0.56
  YS02001918YS02001915 CONDUIT     39.16     0  03:03      0.44    0.02    0.28
  YS02001923YS02001920 CONDUIT     35.51     0  03:02      0.48    0.02    0.15
  YS02001926YS02001923 CONDUIT     35.47     0  03:01      0.52    0.05    0.14
  YS02001929YS02001926 CONDUIT     35.49     0  03:01      0.55    0.02    0.14
  YS02001920YS02001918 CONDUIT     38.39     0  03:02      0.49    0.04    0.16
  YS02001629YS02163301 CONDUIT    119.98     0  03:22      0.16    0.15    1.00
  YS02001619YS02001622 CONDUIT     93.74     0  03:21      0.69    0.14    0.88
  YS02001622YS02001625 CONDUIT    111.29     0  04:51      0.27    0.06    0.95
  YS02001625YS02001629 CONDUIT    114.36     0  03:17      0.27    0.05    0.95
  YS02163301YS02001633 CONDUIT    106.28     0  03:22      0.14    0.10    1.00
  YS02163601YS02164001 CONDUIT    167.89     0  02:46      0.21    0.15    1.00
  YS02164001YS02001641 CONDUIT    163.93     0  03:06      0.21    0.22    1.00
  YS02001641YS02001644 CONDUIT    169.52     0  03:17      0.22    0.55    1.00
  YS02001647YS02001649 CONDUIT    260.28     0  03:10      0.34    0.14    1.00
  YS02006553YS02006556 CONDUIT    250.27     0  02:53      0.35    0.21    0.85
  YS02006556YS02006558 CONDUIT    250.31     0  02:53      0.34    0.20    0.88
  YSB6556YSB1171       CONDUIT     15.04     0  02:18      0.06    0.02    0.60
  YS02001907YS02006553 CONDUIT    250.49     0  02:53      0.29    0.29    0.97
  YS02006558YS02006561 CONDUIT    376.09     0  02:52      2.46    0.83    0.53
  YS02001633YS02163601 CONDUIT    169.17     0  02:46      0.22    0.18    1.00
  YS02001644YS02001647 CONDUIT    247.08     0  03:06      0.32    0.15    1.00
  YS02001745YS02001748 CONDUIT    190.33     0  04:54      1.45    0.07    0.47
  YS02001748YS02001751 CONDUIT    274.61     0  04:53      1.13    0.14    0.83
  YS02001751YS02001754 CONDUIT    112.79     0  04:57      1.01    0.05    1.00
  YS02001754YS02001757 CONDUIT    136.34     0  03:27      0.33    0.05    1.00
  YS02001882YS02001884 CONDUIT      4.69     0  02:07      0.06    0.01    0.50
  YS02001884YS02001887 CONDUIT     13.57     0  02:07      0.07    0.02    0.59
  YS02001890YS02001895 CONDUIT    138.30     0  02:43      0.31    0.06    0.56
  YS02001895YS02001898 CONDUIT    138.64     0  02:42      0.51    0.24    0.43
  YS02001898YS02001901 CONDUIT    138.39     0  02:40      0.35    0.09    0.51
  YS02001901YS02001904 CONDUIT    137.12     0  02:43      0.31    0.21    0.56
  YS02001904YS02001907 CONDUIT    137.60     0  02:43      0.23    0.05    0.72
  YS02001887YS02001890 CONDUIT    139.34     0  02:41      0.26    0.24    0.65
  YS02001652YS02001649 CONDUIT    162.33     0  03:20      0.37    0.08    1.00
  YS02001655YS02001652 CONDUIT    123.69     0  03:02      1.08    0.06    1.00
  YS02001658YS02001655 CONDUIT    205.71     0  05:01      1.30    0.09    0.82
  YS02001661YS02001658 CONDUIT    199.62     0  04:49      1.50    0.08    0.48
  YS02001664YS02001661 CONDUIT     98.44     0  02:43      1.19    0.03    0.24
  YSB1154YSB6556       CONDUIT     14.72     0  02:16      0.19    0.03    0.49
  YSB1174YSB1171       CONDUIT     13.73     0  02:11      0.06    0.02    0.60
  YSB1171HS02004479    CONDUIT     27.60     0  02:17      0.54    0.02    0.47
  HS02004881HS02006253 CONDUIT     45.21     0  02:16      1.76    0.01    0.27
  YS02001793JiankangQianchi CONDUIT    367.83     0  03:00     13.85    0.03    0.55
  YS02001757CaochengTiaoxuchi CONDUIT    613.32     0  02:55      1.47    0.27    0.88
  WSF200WS02003060     CONDUIT    545.39     0  02:35      1.83    0.12    0.33
  1                    CONDUIT    817.72     0  02:37      3.15    0.28    0.37
  2                    CONDUIT    172.99     0  02:25      5.63    0.41    0.45
  3                    CONDUIT    597.65     0  00:00     10.05    0.95    0.86
  4                    CONDUIT      0.00     0  00:00      0.00    0.00    0.00
  CC-Pump-1            PUMP       200.00     0  02:20              1.00
  CC-Pump-2            PUMP       200.00     0  02:20              1.00
  JK-Pump-1            PUMP       300.00     0  00:00              1.00
  JK-Pump-2            PUMP       300.00     0  00:00              1.00
  XR-Pump-1            PUMP        95.00     0  00:00              1.00
  XR-Pump-2            PUMP        95.00     0  00:00              1.00
  XR-Pump-3            PUMP        95.00     0  00:00              1.00
  XR-Pump-4            PUMP        95.00     0  00:00              1.00
  
  
  ***************************
  Flow Classification Summary
  ***************************
  
  -------------------------------------------------------------------------------------
                      Adjusted    ---------- Fraction of Time in Flow Class ---------- 
                       /Actual         Up    Down  Sub   Sup   Up    Down  Norm  Inlet 
  Conduit               Length    Dry  Dry   Dry   Crit  Crit  Crit  Crit  Ltd   Ctrl  
  -------------------------------------------------------------------------------------
  WS02003066WSF200        1.00   0.06  0.01  0.00  0.00  0.93  0.00  0.00  0.63  0.00
  WS02006287WS02006284    1.00   0.03  0.02  0.00  0.68  0.27  0.00  0.00  0.77  0.00
  WS02006284WS02006280    1.00   0.04  0.00  0.00  0.00  0.00  0.00  0.96  0.00  0.00
  WS02006280WS02006229    1.00   0.04  0.00  0.00  0.00  0.00  0.00  0.96  0.00  0.00
  WS02006229WS02006228    1.00   0.00  0.00  0.00  0.98  0.00  0.00  0.02  0.00  0.00
  WS02006256WS02006235    1.00   0.00  0.00  0.00  0.99  0.01  0.00  0.00  0.00  0.00
  WS02006253WS02006251    1.00   0.02  0.01  0.00  0.96  0.00  0.00  0.00  0.00  0.00
  WS02006252WS02006251    1.00   0.08  0.00  0.00  0.00  0.00  0.92  0.00  0.00  0.00
  WS02006251WS02006249    1.00   0.00  0.00  0.00  1.00  0.00  0.00  0.00  0.28  0.00
  WS02006249WS02006248    1.00   0.00  0.02  0.00  0.87  0.00  0.11  0.00  0.00  0.00
  WS02006248WS02006247    1.00   0.02  0.00  0.00  0.97  0.00  0.00  0.01  0.20  0.00
  WS02006247WS02006245    1.00   0.02  0.00  0.00  0.96  0.00  0.00  0.02  0.00  0.00
  WS02006245WS02006243    1.00   0.02  0.00  0.00  0.94  0.00  0.00  0.05  0.02  0.00
  WS02006243WS02006242    1.00   0.01  0.00  0.00  0.99  0.00  0.00  0.00  0.27  0.00
  WS02006242WS02006240    1.00   0.01  0.00  0.00  0.99  0.00  0.00  0.00  0.00  0.00
  WS02006240WS02006239    1.00   0.00  0.00  0.00  0.95  0.00  0.00  0.05  0.02  0.00
  WS02006239WS02006238    1.00   0.00  0.00  0.00  1.00  0.00  0.00  0.00  0.00  0.00
  WS02006238WS02006235    1.00   0.00  0.00  0.00  1.00  0.00  0.00  0.00  0.00  0.00
  WS02006235WS02006234    1.00   0.00  0.00  0.00  0.95  0.00  0.05  0.00  0.00  0.00
  WS02006234WS02006232    1.00   0.00  0.00  0.00  1.00  0.00  0.00  0.00  0.10  0.00
  WS02006232WS02006231    1.00   0.00  0.00  0.00  0.99  0.00  0.01  0.00  0.00  0.00
  WS02006231WS02006230    1.00   0.00  0.00  0.00  0.57  0.00  0.42  0.00  0.00  0.00
  WS02006230WS02006229    1.00   0.00  0.00  0.00  0.98  0.00  0.00  0.02  0.01  0.00
  WS02006228WS02006109    1.00   0.00  0.00  0.00  1.00  0.00  0.00  0.00  0.00  0.00
  WS02006116WS02004401    1.00   0.02  0.00  0.00  0.98  0.00  0.00  0.00  0.00  0.00
  WS02006115WS02006116    1.00   0.02  0.00  0.00  0.97  0.00  0.00  0.01  0.01  0.00
  WS02006113WS02006111    1.00   0.02  0.00  0.00  0.00  0.98  0.00  0.00  0.12  0.00
  WS02006112WS02006115    1.00   0.02  0.00  0.00  0.98  0.00  0.00  0.00  0.00  0.00
  WS02006111WS02006112    1.00   0.02  0.00  0.00  0.98  0.00  0.00  0.00  0.98  0.00
  WS02006110WS02006113    1.00   0.02  0.00  0.00  0.98  0.00  0.00  0.00  0.00  0.00
  WS02006109WS02006110    1.00   0.00  0.02  0.00  0.98  0.00  0.00  0.00  0.00  0.00
  WS02004411WS02004412    1.00   0.05  0.00  0.00  0.95  0.00  0.00  0.00  0.00  0.00
  WS02004401WS02004402    1.00   0.02  0.00  0.00  0.98  0.00  0.00  0.00  0.00  0.00
  WS02004413WS02003067    1.00   0.05  0.01  0.00  0.00  0.00  0.93  0.00  0.00  0.00
  WS02004412WS02004413    1.00   0.05  0.00  0.00  0.95  0.00  0.00  0.00  0.03  0.00
  WS02004410WS02004411    1.00   0.05  0.00  0.00  0.95  0.00  0.00  0.00  0.01  0.00
  WS02004409WS02004410    1.00   0.05  0.00  0.00  0.95  0.00  0.00  0.00  0.00  0.00
  WS02004407WS02004409    1.00   0.05  0.00  0.00  0.95  0.00  0.00  0.00  0.80  0.00
  WS02004406WS02004407    1.00   0.00  0.05  0.00  0.95  0.00  0.00  0.00  0.00  0.00
  WS02004405WS02004406    1.00   0.00  0.00  0.00  1.00  0.00  0.00  0.00  0.02  0.00
  WS02004404WS02004405    1.00   0.00  0.00  0.00  1.00  0.00  0.00  0.00  0.00  0.00
  WS02004403WS02004404    1.00   0.00  0.02  0.00  0.98  0.00  0.00  0.00  0.02  0.00
  WS02004402WS02004403    1.00   0.02  0.00  0.00  0.98  0.00  0.00  0.00  0.00  0.00
  WS02004139WS02001211    1.00   0.00  0.00  0.00  0.99  0.00  0.01  0.00  0.00  0.00
  WS02004138WS02004139    1.00   0.00  0.00  0.00  0.99  0.01  0.00  0.00  1.00  0.00
  WS02003067WS02003066    1.00   0.07  0.00  0.00  0.93  0.00  0.00  0.00  0.00  0.00
  WS02001213WS02003059    1.00   0.00  0.00  0.00  0.99  0.00  0.00  0.00  0.00  0.00
  WS02001212WS02001213    1.00   0.00  0.00  0.00  0.81  0.00  0.18  0.00  0.00  0.00
  WS02001211WS02001212    1.00   0.00  0.00  0.00  1.00  0.00  0.00  0.00  0.00  0.00
  WS02003072WS02003073    1.00   0.00  0.00  0.00  0.00  0.00  0.00  1.00  0.00  0.00
  WS02003069WS02003072    1.00   0.00  0.00  0.00  0.99  0.01  0.00  0.00  0.29  0.00
  WS02003060WS02003069    1.00   0.00  0.00  0.00  0.97  0.03  0.00  0.00  0.13  0.00
  WS02003059WS02003060    1.00   0.00  0.00  0.00  0.99  0.01  0.00  0.00  0.00  0.00
  HS02004901HS02004770    1.00   0.04  0.00  0.00  0.96  0.00  0.00  0.00  0.03  0.00
  HS02004876HS02004881    1.00   0.02  0.00  0.00  0.98  0.00  0.00  0.00  0.00  0.00
  HS02004870HS02004876    1.00   0.01  0.00  0.00  0.99  0.00  0.00  0.00  0.95  0.00
  HS02004842HS02004848    1.00   0.00  0.04  0.00  0.96  0.00  0.00  0.00  0.68  0.00
  HS02004837HS02004842    1.00   0.00  0.00  0.00  0.99  0.01  0.00  0.00  0.11  0.00
  HS02004830HS02004837    1.00   0.00  0.00  0.00  1.00  0.00  0.00  0.00  0.99  0.00
  HS02004824HS02004830    1.00   0.00  0.00  0.00  1.00  0.00  0.00  0.00  0.00  0.00
  HS02004817HS02004824    1.00   0.00  0.00  0.00  1.00  0.00  0.00  0.00  1.00  0.00
  HS02004770HS02004777    1.00   0.00  0.04  0.00  0.96  0.00  0.00  0.00  0.07  0.00
  HS02004799HS02004480    1.00   0.00  0.02  0.00  0.95  0.00  0.03  0.00  0.00  0.00
  HS02004792HS02004799    1.00   0.00  0.00  0.00  0.99  0.01  0.00  0.00  0.98  0.00
  HS02004788HS02004792    1.00   0.00  0.00  0.00  0.98  0.02  0.00  0.00  0.98  0.00
  HS02004785HS02004788    1.00   0.00  0.00  0.00  1.00  0.00  0.00  0.00  0.00  0.00
  HS02004777HS02004785    1.00   0.00  0.00  0.00  1.00  0.00  0.00  0.00  0.21  0.00
  HS02004480HS02004478    1.00   0.04  0.00  0.00  0.73  0.00  0.00  0.23  0.00  0.00
  HS02004479HS02004480    1.00   0.02  0.00  0.00  0.98  0.00  0.00  0.00  0.16  0.00
  HS02004862HS02004870    1.00   0.00  0.00  0.00  1.00  0.00  0.00  0.00  0.05  0.00
  HS02004848HS02004852    1.00   0.04  0.00  0.00  0.96  0.00  0.00  0.00  0.71  0.00
  HS02004856HS02004862    1.00   0.00  0.06  0.00  0.94  0.00  0.00  0.00  0.74  0.00
  HS02004852HS02004856    1.00   0.04  0.01  0.00  0.95  0.00  0.00  0.00  0.82  0.00
  HS02004802HS02004478    1.00   0.04  0.01  0.00  0.95  0.00  0.00  0.00  0.00  0.00
  HS02004478WS02006287    1.00   0.05  0.00  0.00  0.86  0.09  0.00  0.00  0.76  0.00
  HS02004817HS02004807    1.00   0.00  0.04  0.00  0.96  0.00  0.00  0.00  0.00  0.00
  HS02004807HS02004802    1.00   0.04  0.00  0.00  0.96  0.00  0.00  0.00  0.01  0.00
  YS02001759YS02001757    1.00   0.00  0.00  0.00  1.00  0.00  0.00  0.00  0.17  0.00
  YS02001762YS02001759    1.00   0.00  0.00  0.00  1.00  0.00  0.00  0.00  0.05  0.00
  YS02001765YS02001762    1.00   0.00  0.00  0.00  1.00  0.00  0.00  0.00  0.22  0.00
  YS02001770YS02001767    1.00   0.00  0.00  0.00  1.00  0.00  0.00  0.00  0.00  0.00
  YS02001774YS02001770    1.00   0.00  0.05  0.00  0.95  0.00  0.00  0.00  0.06  0.00
  YS02001779YS02001774    1.00   0.00  0.00  0.00  1.00  0.00  0.00  0.00  0.26  0.00
  YS02001649YS02001757    1.00   0.00  0.00  0.00  1.00  0.00  0.00  0.00  0.19  0.00
  YS02001767YS02001765    1.00   0.00  0.00  0.00  1.00  0.00  0.00  0.00  0.01  0.00
  YS02006561YS02001783    1.00   0.06  0.00  0.00  0.00  0.94  0.00  0.00  0.70  0.00
  YS02001783YS02001784    1.00   0.00  0.06  0.00  0.94  0.00  0.00  0.00  0.00  0.00
  YS02001784YS02001785    1.00   0.00  0.00  0.00  1.00  0.00  0.00  0.00  0.25  0.00
  YS02001788YS02001790    1.00   0.00  0.00  0.00  0.07  0.93  0.00  0.00  0.75  0.00
  YS02001790YS02001791    1.00   0.00  0.00  0.00  0.02  0.98  0.00  0.00  0.58  0.00
  YS02001791YS02001793    1.00   0.00  0.00  0.00  0.00  1.00  0.00  0.00  0.00  0.00
  YS02001910YS02001907    1.00   0.00  0.00  0.00  0.98  0.00  0.00  0.02  0.13  0.00
  YS02001786YS02001788    1.00   0.00  0.00  0.00  0.07  0.93  0.00  0.00  0.00  0.00
  YS02001915YS02001910    1.00   0.00  0.00  0.00  1.00  0.00  0.00  0.00  0.24  0.00
  YS02001918YS02001915    1.00   0.00  0.01  0.00  0.99  0.00  0.00  0.00  0.75  0.00
  YS02001923YS02001920    1.00   0.00  0.00  0.00  1.00  0.00  0.00  0.00  1.00  0.00
  YS02001926YS02001923    1.00   0.00  0.03  0.00  0.00  0.00  0.97  0.00  0.00  0.00
  YS02001929YS02001926    1.00   0.00  0.04  0.00  0.96  0.00  0.00  0.00  0.86  0.00
  YS02001920YS02001918    1.00   0.00  0.01  0.00  0.99  0.00  0.00  0.00  0.00  0.00
  YS02001629YS02163301    1.00   0.06  0.00  0.00  0.94  0.00  0.00  0.00  0.00  0.00
  YS02001619YS02001622    1.00   0.04  0.00  0.00  0.96  0.00  0.00  0.00  0.00  0.00
  YS02001622YS02001625    1.00   0.04  0.00  0.00  0.96  0.00  0.00  0.00  0.13  0.00
  YS02001625YS02001629    1.00   0.04  0.03  0.00  0.92  0.00  0.02  0.00  0.00  0.00
  YS02163301YS02001633    1.00   0.00  0.06  0.00  0.94  0.00  0.00  0.00  0.00  0.00
  YS02163601YS02164001    1.00   0.00  0.03  0.00  0.97  0.00  0.00  0.00  0.00  0.00
  YS02164001YS02001641    1.00   0.01  0.02  0.00  0.97  0.00  0.00  0.00  0.07  0.00
  YS02001641YS02001644    1.00   0.00  0.01  0.00  0.99  0.00  0.00  0.00  0.00  0.00
  YS02001647YS02001649    1.00   0.00  0.06  0.00  0.94  0.00  0.00  0.00  0.01  0.00
  YS02006553YS02006556    1.00   0.02  0.00  0.00  0.98  0.00  0.00  0.00  0.03  0.00
  YS02006556YS02006558    1.00   0.00  0.00  0.00  1.00  0.00  0.00  0.00  0.00  0.00
  YSB6556YSB1171          1.00   0.02  0.02  0.00  0.96  0.00  0.00  0.00  0.00  0.00
  YS02001907YS02006553    1.00   0.00  0.02  0.00  0.98  0.00  0.00  0.00  0.00  0.00
  YS02006558YS02006561    1.00   0.06  0.00  0.00  0.00  0.94  0.00  0.00  0.67  0.00
  YS02001633YS02163601    1.00   0.00  0.01  0.00  0.99  0.00  0.00  0.00  0.20  0.00
  YS02001644YS02001647    1.00   0.00  0.06  0.00  0.94  0.00  0.00  0.00  0.00  0.00
  YS02001745YS02001748    1.00   0.00  0.00  0.00  0.87  0.01  0.00  0.11  0.35  0.00
  YS02001748YS02001751    1.00   0.00  0.00  0.00  0.97  0.03  0.00  0.00  0.24  0.00
  YS02001751YS02001754    1.00   0.00  0.00  0.00  0.93  0.00  0.00  0.07  0.01  0.00
  YS02001754YS02001757    1.00   0.00  0.00  0.00  0.99  0.01  0.00  0.00  0.26  0.00
  YS02001882YS02001884    1.00   0.05  0.00  0.00  0.94  0.00  0.00  0.00  0.00  0.00
  YS02001884YS02001887    1.00   0.03  0.01  0.00  0.96  0.00  0.00  0.00  0.00  0.00
  YS02001890YS02001895    1.00   0.00  0.06  0.00  0.94  0.00  0.00  0.00  0.00  0.00
  YS02001895YS02001898    1.00   0.06  0.00  0.00  0.93  0.00  0.01  0.00  0.00  0.00
  YS02001898YS02001901    1.00   0.06  0.00  0.00  0.94  0.00  0.00  0.00  0.02  0.00
  YS02001901YS02001904    1.00   0.06  0.00  0.00  0.94  0.00  0.00  0.00  0.00  0.00
  YS02001904YS02001907    1.00   0.00  0.05  0.00  0.94  0.00  0.00  0.00  0.00  0.00
  YS02001887YS02001890    1.00   0.00  0.00  0.00  0.98  0.00  0.02  0.00  0.00  0.00
  YS02001652YS02001649    1.00   0.00  0.00  0.00  1.00  0.00  0.00  0.00  0.26  0.00
  YS02001655YS02001652    1.00   0.00  0.00  0.00  0.93  0.00  0.00  0.07  0.02  0.00
  YS02001658YS02001655    1.00   0.00  0.05  0.00  0.92  0.03  0.00  0.00  0.09  0.00
  YS02001661YS02001658    1.00   0.05  0.00  0.00  0.87  0.08  0.00  0.00  0.33  0.00
  YS02001664YS02001661    1.00   0.04  0.00  0.00  0.71  0.25  0.00  0.00  0.86  0.00
  YSB1154YSB6556          1.00   0.04  0.00  0.00  0.96  0.00  0.00  0.00  0.02  0.00
  YSB1174YSB1171          1.00   0.02  0.01  0.00  0.97  0.00  0.00  0.00  0.00  0.00
  YSB1171HS02004479       1.00   0.02  0.00  0.00  0.97  0.00  0.00  0.00  0.13  0.00
  HS02004881HS02006253    1.00   0.03  0.00  0.00  0.67  0.01  0.00  0.29  0.52  0.00
  YS02001793JiankangQianchi    1.00   0.00  0.00  0.00  0.12  0.87  0.00  0.00  0.17  0.00
  YS02001757CaochengTiaoxuchi    1.00   0.00  0.08  0.00  0.92  0.00  0.00  0.00  0.00  0.00
  WSF200WS02003060        1.00   0.00  0.06  0.00  0.72  0.22  0.00  0.00  0.46  0.00
  1                       1.00   0.00  0.00  0.00  0.00  1.00  0.00  0.00  0.41  0.00
  2                       1.00   0.60  0.00  0.00  0.00  0.40  0.00  0.00  0.07  0.00
  3                       1.00   0.11  0.00  0.00  0.00  0.89  0.00  0.00  0.02  0.00
  4                       1.00   1.00  0.00  0.00  0.00  0.00  0.00  0.00  0.00  0.00
  
  
  *************************
  Conduit Surcharge Summary
  *************************
  
  ----------------------------------------------------------------------------
                                                           Hours        Hours 
                         --------- Hours Full --------   Above Full   Capacity
  Conduit                Both Ends  Upstream  Dnstream   Normal Flow   Limited
  ----------------------------------------------------------------------------
  WS02006229WS02006228        1.56      1.92      1.56      3.68         1.56
  WS02006256WS02006235        5.65      5.65      7.04      2.80         0.01
  WS02006252WS02006251        1.79      1.79      2.62      2.41         0.01
  WS02006251WS02006249        0.01      0.01      0.01      1.76         0.01
  WS02006249WS02006248        0.01      0.01      0.01      3.52         0.01
  WS02006248WS02006247        0.01      0.01      0.01      0.01         0.01
  WS02006247WS02006245        0.01      0.01      0.01      4.13         0.01
  WS02006245WS02006243        0.01      0.01      0.03      0.05         0.01
  WS02006243WS02006242        0.21      0.21      1.37      0.01         0.01
  WS02006242WS02006240        0.51      0.51      1.82      2.58         0.01
  WS02006240WS02006239        0.53      0.53      0.55      0.16         0.01
  WS02006239WS02006238        1.53      1.54      1.64      0.55         0.45
  WS02006238WS02006235        1.36      1.36      2.06      0.01         0.01
  WS02006235WS02006234        0.52      0.52      1.12      5.67         0.01
  WS02006234WS02006232        0.58      0.58      2.15      0.01         0.01
  WS02006232WS02006231        0.02      0.02      2.15      0.01         0.01
  WS02006231WS02006230        0.01      0.01      0.10      5.64         0.01
  WS02006230WS02006229        3.01      3.46      3.01      5.71         3.01
  WS02006228WS02006109        1.69      2.54      1.69      4.87         1.69
  WS02006112WS02006115        0.01      0.01      0.54      0.01         0.01
  WS02006111WS02006112        0.01      0.01      3.77      0.01         0.01
  WS02006110WS02006113        0.01      0.01      2.26      0.01         0.01
  WS02006109WS02006110        0.26      0.26      2.54      0.26         0.01
  WS02004405WS02004406        0.01      0.01      0.01      0.45         0.01
  WS02004404WS02004405        0.01      0.01      0.01      5.63         0.01
  WS02003072WS02003073        0.01      0.01      0.01      4.72         0.01
  YS02001759YS02001757        5.27      5.27      5.38      0.01         0.01
  YS02001762YS02001759        5.18      5.18      5.27      0.01         0.01
  YS02001765YS02001762        4.87      4.87      5.18      0.01         0.01
  YS02001770YS02001767        3.67      3.68      3.84      0.01         0.78
  YS02001774YS02001770        3.37      3.37      5.09      0.01         0.01
  YS02001779YS02001774        0.97      0.97      5.09      0.01         0.01
  YS02001649YS02001757        5.23      5.23      5.38      0.01         0.01
  YS02001767YS02001765        3.84      3.84      4.87      0.01         0.01
  YS02001629YS02163301        3.19      3.19      3.50      0.01         0.01
  YS02001622YS02001625        0.01      0.01      2.70      0.01         0.01
  YS02001625YS02001629        0.01      0.01      2.70      0.01         0.01
  YS02163301YS02001633        3.50      3.50      4.92      0.01         0.01
  YS02163601YS02164001        4.85      4.85      5.21      0.01         0.01
  YS02164001YS02001641        4.85      4.85      5.01      0.01         0.01
  YS02001641YS02001644        5.01      5.01      5.04      0.01         0.52
  YS02001647YS02001649        2.63      2.63      5.23      0.01         0.01
  YS02001633YS02163601        4.48      4.48      5.21      0.01         0.01
  YS02001644YS02001647        2.63      2.63      5.04      0.01         0.01
  YS02001748YS02001751        0.01      0.01      0.01      0.01         0.01
  YS02001751YS02001754        0.01      0.01      1.64      0.01         0.01
  YS02001754YS02001757        2.69      2.69      5.38      0.01         0.01
  YS02001652YS02001649        2.74      2.74      5.23      0.01         0.01
  YS02001655YS02001652        0.01      0.01      2.37      0.01         0.01
  YS02001793JiankangQianchi        0.01      0.01      0.24      0.01         0.01
  YS02001757CaochengTiaoxuchi        0.01      0.01      5.38      0.01         0.01
  3                           0.01      0.01      0.01      0.01         0.01
  
  
  ***************
  Pumping Summary
  ***************
  
  ---------------------------------------------------------------------------------------------------------
                                                  Min       Avg       Max     Total     Power    % Time Off
                        Percent   Number of      Flow      Flow      Flow    Volume     Usage    Pump Curve
  Pump                 Utilized   Start-Ups       LPS       LPS       LPS  10^6 ltr     Kw-hr    Low   High
  ---------------------------------------------------------------------------------------------------------
  CC-Pump-1               51.82           6      0.00    148.78    200.00     2.175      7.48    0.0   17.9
  CC-Pump-2               60.35           6      0.00    148.28    200.00     2.535      8.68    0.0   22.3
  JK-Pump-1               87.23           5      0.00    117.17    300.00     2.048     39.39    0.0    0.0
  JK-Pump-2               80.84           6      0.00    145.55    300.00     2.638     50.17    0.0    0.0
  XR-Pump-1               68.08           8      0.00     65.64     95.00     1.311     13.30    0.0    0.0
  XR-Pump-2               85.10           6      0.00     71.46     95.00     1.710     18.09    0.0    0.0
  XR-Pump-3               82.98           7      0.00     69.98     95.00     1.625     15.83    0.0    0.0
  XR-Pump-4               93.61           6      0.00     74.73     95.00     1.995     21.56    0.0    0.0
  

  Analysis begun on:  Tue Dec 21 14:34:54 2021
  Analysis ended on:  Tue Dec 21 14:34:57 2021
  Total elapsed time: 00:00:03