
  EPA STORM WATER MANAGEMENT MODEL - VERSION 5.1 (Build 5.3.0.dev0)
  --------------------------------------------------------------

  WARNING 04: minimum elevation drop used for Conduit WS02004404WS02004405
  WARNING 03: negative offset ignored for Link YS02001904YS02001907
  
  *********************************************************
  NOTE: The summary statistics displayed in this report are
  based on results found at every computational time step,  
  not just on results from each reporting time step.
  *********************************************************
  
  ****************
  Analysis Options
  ****************
  Flow Units ............... LPS
  Process Models:
    Rainfall/Runoff ........ YES
    RDII ................... NO
    Snowmelt ............... NO
    Groundwater ............ NO
    Flow Routing ........... YES
    Ponding Allowed ........ NO
    Water Quality .......... NO
  Infiltration Method ...... HORTON
  Flow Routing Method ...... DYNWAVE
  Surcharge Method ......... EXTRAN
  Starting Date ............ 08/28/2015 08:00:00
  Ending Date .............. 08/28/2015 15:50:00
  Antecedent Dry Days ...... 8.0
  Report Time Step ......... 00:01:00
  Wet Time Step ............ 00:01:00
  Dry Time Step ............ 00:01:00
  Routing Time Step ........ 5.00 sec
  Variable Time Step ....... YES
  Maximum Trials ........... 8
  Number of Threads ........ 4
  Head Tolerance ........... 0.001500 m
  
  
  **************************        Volume         Depth
  Runoff Quantity Continuity     hectare-m            mm
  **************************     ---------       -------
  Total Precipitation ......         5.556        12.164
  Evaporation Loss .........         0.000         0.000
  Infiltration Loss ........         1.427         3.124
  Surface Runoff ...........         3.072         6.726
  Final Storage ............         1.058         2.316
  Continuity Error (%) .....        -0.016
  
  
  **************************        Volume        Volume
  Flow Routing Continuity        hectare-m      10^6 ltr
  **************************     ---------     ---------
  Dry Weather Inflow .......         0.616         6.165
  Wet Weather Inflow .......         3.071        30.708
  Groundwater Inflow .......         0.000         0.000
  RDII Inflow ..............         0.000         0.000
  External Inflow ..........         0.102         1.024
  External Outflow .........         1.937        19.370
  Flooding Loss ............         1.339        13.392
  Evaporation Loss .........         0.000         0.000
  Exfiltration Loss ........         0.000         0.000
  Initial Stored Volume ....         0.076         0.761
  Final Stored Volume ......         0.637         6.372
  Continuity Error (%) .....        -1.233
  
  
  *************************
  Highest Continuity Errors
  *************************
  Node HS02004842 (16.24%)
  Node YS02001884 (11.14%)
  Node JK-storage (-5.04%)
  Node YSB1171 (3.12%)
  Node HS02004817 (2.99%)
  
  
  ***************************
  Time-Step Critical Elements
  ***************************
  Link WS02006252WS02006251 (47.59%)
  Link 3 (43.77%)
  Link WS02006238WS02006235 (2.07%)
  Link WS02006280WS02006229 (1.72%)
  
  
  ********************************
  Highest Flow Instability Indexes
  ********************************
  Link YS02001629YS02163301 (40)
  Link YS02001619YS02001622 (40)
  Link YS02163301YS02001633 (40)
  Link YS02163601YS02164001 (40)
  Link YS02164001YS02001641 (37)
  
  
  *************************
  Routing Time Step Summary
  *************************
  Minimum Time Step           :     0.28 sec
  Average Time Step           :     0.79 sec
  Maximum Time Step           :     5.00 sec
  Percent in Steady State     :    -0.00
  Average Iterations per Step :     4.71
  Percent Not Converging      :    23.26
  
  
  ***************************
  Subcatchment Runoff Summary
  ***************************
  
  ------------------------------------------------------------------------------------------------------------------------------
                            Total      Total      Total      Total     Imperv       Perv      Total       Total     Peak  Runoff
                           Precip      Runon       Evap      Infil     Runoff     Runoff     Runoff      Runoff   Runoff   Coeff
  Subcatchment                 mm         mm         mm         mm         mm         mm         mm    10^6 ltr      LPS
  ------------------------------------------------------------------------------------------------------------------------------
  sub0                      12.16       0.00       0.00       0.85      10.05       0.00      10.05        0.01     1.91   0.826
  sub1                      12.16       0.00       0.00       1.34       9.56       0.00       9.56        0.06    14.15   0.786
  sub2                      12.16       0.00       0.00       4.50       6.75       0.00       6.75        0.06    13.75   0.555
  sub3                      12.16       0.00       0.00       4.50       6.71       0.00       6.71        0.15    32.07   0.552
  sub4                      12.16       0.00       0.00       1.34       9.40       0.00       9.40        0.20    40.20   0.773
  sub5                      12.16       0.00       0.00       0.85       9.99       0.00       9.99        0.11    25.19   0.822
  sub7                      12.16       0.00       0.00       1.09       9.81       0.00       9.81        0.03     7.55   0.807
  sub8                      12.16       0.00       0.00       1.09       9.80       0.00       9.80        0.06    14.17   0.806
  sub9                      12.16       0.00       0.00       1.09       9.80       0.00       9.80        0.05    10.64   0.806
  sub10                     12.16       0.00       0.00       0.97       9.89       0.00       9.89        0.11    24.40   0.813
  sub11                     12.16       0.00       0.00       0.97       9.91       0.00       9.91        0.12    26.15   0.815
  sub12                     12.16       0.00       0.00       1.58       9.39       0.00       9.39        0.08    19.06   0.772
  sub14                     12.16       0.00       0.00       1.09       9.80       0.00       9.80        0.09    21.02   0.805
  sub15                     12.16       0.00       0.00       3.65       7.53       0.00       7.53        0.13    29.11   0.619
  sub16                     12.16       0.00       0.00       4.01       7.23       0.00       7.23        0.08    17.47   0.594
  sub17                     12.16       0.00       0.00       3.89       7.34       0.00       7.34        0.06    14.47   0.603
  sub22                     12.16       0.00       0.00       5.23       6.14       0.00       6.14        0.39    88.27   0.505
  sub23                     12.16       0.00       0.00       4.50       6.79       0.00       6.79        0.32    73.89   0.558
  sub60                     12.16       0.00       0.00       1.46       7.71       0.00       7.71        2.34   297.17   0.634
  sub61                     12.16       0.00       0.00       2.07       7.87       0.00       7.87        2.43   359.80   0.647
  sub62                     12.16       0.00       0.00       0.97       8.55       0.00       8.55        2.63   372.87   0.703
  sub63                     12.16       0.00       0.00       3.53       6.89       0.00       6.89        2.09   327.80   0.567
  sub64                     12.16       0.00       0.00       1.82       7.40       0.00       7.40        2.25   282.66   0.608
  sub65                     12.16       0.00       0.00       1.58       7.52       0.00       7.52        2.31   287.20   0.618
  sub66                     12.16       0.00       0.00       3.53       6.36       0.00       6.36        1.95   257.27   0.523
  sub67                     12.16       0.00       0.00       0.97       9.05       0.00       9.05        2.79   452.90   0.744
  sub68                     12.16       0.00       0.00       1.70       8.28       0.00       8.28        2.55   391.99   0.681
  sub69                     12.16       0.00       0.00       1.82       8.61       0.00       8.61        2.01   355.79   0.708
  sub70                     12.16       8.79       0.00       7.03      11.43       0.10      11.53        2.64   335.00   0.550
  sub71                     12.16       0.00       0.00       0.97       8.31       0.00       8.31        1.96   263.63   0.683
  sub72                     12.16       0.00       0.00       0.85       6.56       0.00       6.56        1.34   129.40   0.540
  sub73                     12.16      11.23       0.00       7.88      12.47       0.08      12.54        2.95   300.52   0.536
  sub74                     12.16       0.00       0.00       9.12       2.57       0.00       2.57        1.03   189.59   0.211
  
  
  ******************
  Node Depth Summary
  ******************
  
  ---------------------------------------------------------------------------------
                                 Average  Maximum  Maximum  Time of Max    Reported
                                   Depth    Depth      HGL   Occurrence   Max Depth
  Node                 Type       Meters   Meters   Meters  days hr:min      Meters
  ---------------------------------------------------------------------------------
  WS02001211           JUNCTION     0.62     0.76     5.60     0  01:20        0.76
  WS02001212           JUNCTION     0.36     0.46     5.52     0  07:14        0.46
  WS02001213           JUNCTION     0.60     0.72     5.48     0  02:51        0.72
  WS02003069           JUNCTION     0.44     0.58     5.16     0  02:53        0.58
  WS02003072           JUNCTION     0.51     0.64     5.01     0  02:54        0.64
  WS02003073           JUNCTION     0.30     0.39     4.46     0  02:54        0.39
  WS02003060           JUNCTION     0.39     0.51     5.44     0  02:52        0.51
  WS02003066           JUNCTION     0.25     0.33     5.88     0  03:06        0.33
  WS02003059           JUNCTION     0.67     0.78     5.47     0  02:52        0.78
  WS02003067           JUNCTION     0.60     0.74     6.06     0  03:04        0.74
  WS02004401           JUNCTION     0.71     0.98     6.98     0  03:02        0.98
  WS02004402           JUNCTION     0.74     0.99     6.95     0  03:03        0.99
  WS02004403           JUNCTION     0.76     1.00     6.93     0  03:03        1.00
  WS02004404           JUNCTION     0.84     1.06     6.91     0  03:03        1.06
  WS02004406           JUNCTION     0.84     1.03     6.86     0  03:03        1.03
  WS02004409           JUNCTION     0.53     0.75     6.52     0  03:04        0.75
  WS02004410           JUNCTION     0.55     0.76     6.48     0  03:05        0.76
  WS02004411           JUNCTION     0.56     0.77     6.45     0  03:05        0.76
  WS02004412           JUNCTION     0.57     0.76     6.40     0  03:05        0.76
  WS02004413           JUNCTION     0.73     0.92     6.39     0  03:05        0.92
  WS02004405           JUNCTION     0.83     1.05     6.90     0  03:03        1.05
  WS02006109           JUNCTION     0.80     1.11     7.72     0  02:59        1.09
  WS02006110           JUNCTION     0.78     1.02     7.61     0  02:59        1.00
  WS02006111           JUNCTION     0.23     0.36     7.07     0  03:02        0.35
  WS02006112           JUNCTION     0.89     1.20     7.08     0  03:00        1.19
  WS02006113           JUNCTION     0.36     0.51     7.40     0  03:01        0.51
  WS02006115           JUNCTION     0.61     0.89     7.03     0  03:03        0.89
  WS02006116           JUNCTION     0.69     0.97     7.01     0  03:02        0.97
  WS02006230           JUNCTION     0.78     1.17     7.91     0  03:00        1.17
  WS02006231           JUNCTION     0.52     0.82     7.95     0  03:01        0.82
  WS02006232           JUNCTION     0.66     0.95     7.99     0  02:59        0.94
  WS02006234           JUNCTION     0.58     0.86     8.01     0  02:59        0.85
  WS02006235           JUNCTION     0.61     0.88     8.05     0  02:59        0.88
  WS02006238           JUNCTION     0.63     0.90     8.05     0  03:01        0.90
  WS02006240           JUNCTION     0.53     0.79     8.08     0  02:59        0.79
  WS02006242           JUNCTION     0.59     0.83     8.10     0  02:59        0.83
  WS02006243           JUNCTION     0.46     0.71     8.13     0  03:00        0.71
  WS02006245           JUNCTION     0.44     0.66     8.15     0  03:00        0.66
  WS02006247           JUNCTION     0.46     0.67     8.17     0  03:20        0.67
  WS02006248           JUNCTION     0.40     0.60     8.19     0  03:20        0.60
  WS02006249           JUNCTION     0.43     0.61     8.21     0  03:20        0.61
  WS02006239           JUNCTION     0.59     0.85     8.06     0  02:59        0.85
  WS02006251           JUNCTION     0.42     0.64     8.31     0  03:20        0.64
  WS02006252           JUNCTION     0.36     0.59     8.83     0  07:09        0.59
  WS02006253           JUNCTION     0.45     0.67     8.31     0  03:20        0.66
  WS02006256           JUNCTION     1.05     2.35     9.28     0  00:00        1.22
  WS02004138           JUNCTION     0.14     0.20     7.45     0  00:00        0.19
  WS02004407           JUNCTION     0.24     0.33     6.64     0  03:03        0.33
  WS02006228           JUNCTION     0.80     1.17     7.82     0  03:00        1.16
  WS02006229           JUNCTION     0.78     1.18     7.87     0  03:02        1.18
  WS02006280           JUNCTION     0.07     0.19     8.46     0  03:02        0.19
  WS02006284           JUNCTION     0.37     0.55     8.95     0  03:02        0.55
  WS02006287           JUNCTION     0.10     0.28     9.24     0  03:01        0.28
  WSF200               JUNCTION     0.24     0.35     5.58     0  02:53        0.35
  HS02004901           JUNCTION     0.13     0.28    10.10     0  03:01        0.28
  HS02004881           JUNCTION     0.01     0.04     9.07     0  03:01        0.04
  HS02004876           JUNCTION     0.05     0.12     9.15     0  03:01        0.12
  HS02004870           JUNCTION     0.02     0.06     9.35     0  03:01        0.06
  HS02004862           JUNCTION     0.02     0.07     9.46     0  03:01        0.07
  HS02004856           JUNCTION     0.08     0.13     9.55     0  03:01        0.13
  HS02004852           JUNCTION     0.01     0.05     9.56     0  03:01        0.05
  HS02004848           JUNCTION     0.01     0.05     9.65     0  03:01        0.05
  HS02004842           JUNCTION     0.33     0.38     9.65     0  03:01        0.38
  HS02004837           JUNCTION     0.03     0.07     9.65     0  03:01        0.07
  HS02004830           JUNCTION     0.04     0.08     9.55     0  03:01        0.08
  HS02004824           JUNCTION     0.02     0.06     9.46     0  03:01        0.06
  HS02004817           JUNCTION     0.45     0.60     9.44     0  03:01        0.60
  HS02004807           JUNCTION     0.13     0.27     9.44     0  03:01        0.27
  HS02004802           JUNCTION     0.17     0.30     9.43     0  03:01        0.30
  HS02004799           JUNCTION     0.13     0.33     9.54     0  03:01        0.33
  HS02004792           JUNCTION     0.04     0.14     9.66     0  03:01        0.14
  HS02004788           JUNCTION     0.03     0.10    10.00     0  03:01        0.10
  HS02004785           JUNCTION     0.05     0.17    10.07     0  03:01        0.17
  HS02004777           JUNCTION     0.15     0.30    10.10     0  03:01        0.30
  HS02004770           JUNCTION     0.12     0.27    10.10     0  03:01        0.27
  HS02004480           JUNCTION     0.09     0.26     9.50     0  03:01        0.26
  HS02004479           JUNCTION     0.12     0.30     9.50     0  03:01        0.30
  HS02004478           JUNCTION     0.07     0.18     9.41     0  03:01        0.18
  YS02001745           JUNCTION     0.70     0.87     8.39     0  03:19        0.87
  YS02001748           JUNCTION     1.10     2.27     9.35     0  02:40        1.31
  YS02001751           JUNCTION     1.29     2.20     9.08     0  02:41        1.52
  YS02001754           JUNCTION     1.54     2.19     8.80     0  02:40        1.81
  YS02001762           JUNCTION     1.74     2.09     8.49     0  02:40        2.02
  YS02001765           JUNCTION     1.70     2.02     8.47     0  02:40        1.97
  YS02001767           JUNCTION     1.66     1.97     8.46     0  02:40        1.92
  YS02001770           JUNCTION     1.65     1.95     8.44     0  02:40        1.90
  YS02001774           JUNCTION     1.72     2.01     8.43     0  02:41        1.97
  YS02001779           JUNCTION     1.47     1.68     8.37     0  02:40        1.68
  YS02001882           JUNCTION     0.54     1.61     8.33     0  03:00        1.60
  YS02001884           JUNCTION     0.64     1.71     8.33     0  03:01        1.70
  YS02001759           JUNCTION     1.78     2.12     8.48     0  02:40        2.06
  YS02001887           JUNCTION     0.71     1.79     8.33     0  03:00        1.78
  YS02001890           JUNCTION     0.74     1.81     8.32     0  02:59        1.80
  YS02001898           JUNCTION     0.51     1.55     8.29     0  02:58        1.55
  YS02001901           JUNCTION     0.63     1.67     8.28     0  03:00        1.67
  YS02001904           JUNCTION     0.61     1.63     8.26     0  03:01        1.63
  YS02001907           JUNCTION     0.94     1.96     8.25     0  02:52        1.96
  YS02001910           JUNCTION     0.73     1.78     8.29     0  02:54        1.76
  YS02001915           JUNCTION     0.53     1.59     8.31     0  02:53        1.58
  YS02001918           JUNCTION     0.27     1.27     8.33     0  02:53        1.25
  YS02001619           JUNCTION     1.25     1.61     8.54     0  02:36        1.47
  YS02001629           JUNCTION     1.61     1.85     8.40     0  02:38        1.85
  YS02001641           JUNCTION     1.71     1.96     8.40     0  02:40        1.93
  YS02001644           JUNCTION     1.71     1.92     8.35     0  02:40        1.92
  YS02001652           JUNCTION     1.56     2.16     8.76     0  02:53        2.02
  YS02001655           JUNCTION     1.32     2.20     9.05     0  02:33        1.87
  YS02001920           JUNCTION     0.37     1.34     8.35     0  02:53        1.32
  YS02001923           JUNCTION     0.21     1.10     8.36     0  02:53        1.08
  YS02001926           JUNCTION     0.27     0.91     8.36     0  02:53        0.89
  YS02001929           JUNCTION     0.15     0.69     8.39     0  02:53        0.67
  YS02001658           JUNCTION     1.04     2.30     9.44     0  02:36        1.85
  YS02001661           JUNCTION     0.81     2.46     9.86     0  02:54        1.83
  YS02001664           JUNCTION     0.35     0.57     8.49     0  02:52        0.57
  YS02001622           JUNCTION     1.28     1.62     8.52     0  02:37        1.49
  YS02001633           JUNCTION     1.70     1.97     8.42     0  02:42        1.93
  YS02001649           JUNCTION     1.75     2.05     8.44     0  02:52        2.05
  YS02001757           JUNCTION     1.87     2.21     8.47     0  02:40        2.16
  YS02001895           JUNCTION     0.51     1.55     8.30     0  02:57        1.54
  YS02001625           JUNCTION     1.56     1.78     8.38     0  02:36        1.78
  YS02163301           JUNCTION     1.64     1.90     8.42     0  02:40        1.89
  YS02163601           JUNCTION     1.75     2.02     8.42     0  02:40        1.98
  YS02164001           JUNCTION     1.69     1.96     8.42     0  02:40        1.91
  YS02001647           JUNCTION     1.54     1.80     8.41     0  02:40        1.79
  YSB1154              JUNCTION     0.26     0.45     9.51     0  03:01        0.45
  YSB6556              JUNCTION     0.16     0.34     9.51     0  03:01        0.34
  YSB1174              JUNCTION     0.22     0.40     9.51     0  03:01        0.40
  YSB1171              JUNCTION     0.42     0.60     9.51     0  03:01        0.60
  YS02006553           JUNCTION     0.94     1.96     8.25     0  02:58        1.96
  YS02006561           JUNCTION     0.32     1.08     7.74     0  03:01        1.07
  YS02006556           JUNCTION     0.91     1.92     8.23     0  03:00        1.91
  YS02006558           JUNCTION     0.95     1.96     8.23     0  03:00        1.95
  YS02001783           JUNCTION     0.54     1.96     8.10     0  02:37        1.46
  YS02001784           JUNCTION     0.56     1.96     8.03     0  02:37        1.40
  YS02001786           JUNCTION     0.51     1.83     7.86     0  02:37        1.25
  YS02001788           JUNCTION     0.44     2.25     8.23     0  02:37        1.13
  YS02001790           JUNCTION     0.56     1.96     7.60     0  02:36        1.29
  YS02001791           JUNCTION     0.53     1.76     7.23     0  02:37        1.27
  YS02001793           JUNCTION     0.72     2.40     7.23     0  02:34        1.80
  WS02004139           JUNCTION     0.56     0.71     5.62     0  01:20        0.71
  WSC                  OUTFALL      0.30     0.39     1.06     0  02:55        0.39
  3                    OUTFALL      0.10     0.23     6.23     0  00:00        0.21
  4                    OUTFALL      0.02     0.11     7.11     0  03:20        0.11
  5                    OUTFALL      0.00     0.00     5.00     0  00:00        0.00
  JK-storage           STORAGE      2.75     5.80     6.60     0  02:37        5.80
  CC-storage           STORAGE      1.10     1.37     8.37     0  05:12        1.37
  XR-storage           STORAGE      6.60     7.72     5.72     0  02:58        7.72
  
  
  *******************
  Node Inflow Summary
  *******************
  
  -------------------------------------------------------------------------------------------------
                                  Maximum  Maximum                  Lateral       Total        Flow
                                  Lateral    Total  Time of Max      Inflow      Inflow     Balance
                                   Inflow   Inflow   Occurrence      Volume      Volume       Error
  Node                 Type           LPS      LPS  days hr:min    10^6 ltr    10^6 ltr     Percent
  -------------------------------------------------------------------------------------------------
  WS02001211           JUNCTION      7.35   387.65     0  01:20       0.207        6.28       0.450
  WS02001212           JUNCTION      0.00   387.61     0  01:20           0        6.25       0.264
  WS02001213           JUNCTION      0.00   387.60     0  01:20           0        6.23       0.359
  WS02003069           JUNCTION      0.32   925.69     0  02:53     0.00902        15.1       0.175
  WS02003072           JUNCTION      0.00   925.02     0  02:53           0          15       0.223
  WS02003073           JUNCTION      1.82   926.51     0  02:54      0.0514          15       0.248
  WS02003060           JUNCTION     16.53   925.69     0  02:52       0.466        15.1       0.165
  WS02003066           JUNCTION      0.00   664.59     0  03:06           0        8.44       0.050
  WS02003059           JUNCTION      0.00   387.60     0  01:20           0        6.21       0.520
  WS02003067           JUNCTION      0.00   664.62     0  03:06           0        8.45       0.105
  WS02004401           JUNCTION      0.00   667.91     0  03:04           0        8.66       0.227
  WS02004402           JUNCTION      0.00   666.90     0  03:02           0        8.64       0.217
  WS02004403           JUNCTION      0.00   666.35     0  03:02           0        8.62       0.199
  WS02004404           JUNCTION      0.16   665.62     0  03:03     0.00457        8.61       0.151
  WS02004406           JUNCTION      0.00   665.79     0  03:03           0        8.58       0.368
  WS02004409           JUNCTION      0.00   665.74     0  03:03           0        8.54       0.172
  WS02004410           JUNCTION      0.00   665.22     0  03:03           0        8.53       0.199
  WS02004411           JUNCTION      0.00   664.98     0  03:04           0        8.51       0.206
  WS02004412           JUNCTION      0.00   664.76     0  03:05           0        8.49       0.226
  WS02004413           JUNCTION      0.00   664.79     0  03:05           0        8.47       0.339
  WS02004405           JUNCTION      0.04   665.71     0  03:03     0.00107         8.6       0.229
  WS02006109           JUNCTION      1.23   656.48     0  03:02      0.0347        8.71       0.249
  WS02006110           JUNCTION      0.00   656.53     0  03:02           0        8.69       0.205
  WS02006111           JUNCTION      0.00   690.23     0  03:02           0        8.67       0.042
  WS02006112           JUNCTION     14.47   670.58     0  03:02      0.0629        8.72       0.294
  WS02006113           JUNCTION      0.00   656.88     0  03:02           0        8.67       0.093
  WS02006115           JUNCTION      0.00   670.72     0  03:01           0         8.7       0.208
  WS02006116           JUNCTION      0.00   667.54     0  03:01           0        8.68       0.203
  WS02006230           JUNCTION     10.28   399.81     0  04:52        0.29        6.83       0.185
  WS02006231           JUNCTION      0.00   390.79     0  04:51           0        6.55       0.129
  WS02006232           JUNCTION      0.00   390.77     0  04:51           0        6.56       0.220
  WS02006234           JUNCTION      0.00   393.41     0  06:41           0        6.57       0.090
  WS02006235           JUNCTION      0.00   393.40     0  06:41           0         6.6       0.144
  WS02006238           JUNCTION      0.00   335.94     0  03:51           0        4.69       0.146
  WS02006240           JUNCTION      0.00   335.68     0  03:51           0        4.69       0.215
  WS02006242           JUNCTION      0.00   336.32     0  06:21           0        4.69       0.273
  WS02006243           JUNCTION      0.00   335.87     0  06:21           0        4.69       0.119
  WS02006245           JUNCTION      0.00   335.31     0  06:21           0         4.7       0.186
  WS02006247           JUNCTION      0.00   335.85     0  06:20           0        4.71       0.140
  WS02006248           JUNCTION      0.00   337.21     0  06:20           0        4.71       0.082
  WS02006249           JUNCTION      0.00   419.68     0  03:20           0           5       0.207
  WS02006239           JUNCTION      0.00   336.53     0  03:51           0        4.69       0.208
  WS02006251           JUNCTION      0.08   420.93     0  03:20     0.00217        5.02       0.175
  WS02006252           JUNCTION      0.00   399.99     0  06:40           0        4.65       0.009
  WS02006253           JUNCTION      1.91    81.00     0  03:01     0.00814       0.381       0.953
  WS02006256           JUNCTION      0.00   600.00     0  00:00           0        6.01       0.030
  WS02004138           JUNCTION      0.00   380.00     0  00:00           0         6.1       0.080
  WS02004407           JUNCTION      0.00   666.02     0  03:03           0        8.55       0.076
  WS02006228           JUNCTION      0.00   655.28     0  03:02           0        8.69       0.166
  WS02006229           JUNCTION      0.00   654.02     0  03:02           0         8.7       0.119
  WS02006280           JUNCTION      0.00   375.54     0  03:02           0        1.89       0.004
  WS02006284           JUNCTION      0.10   375.54     0  03:02      0.0027        1.89       0.064
  WS02006287           JUNCTION      0.00   375.27     0  03:01           0        1.89       0.038
  WSF200               JUNCTION      0.00   664.60     0  03:05           0        8.43       0.048
  HS02004901           JUNCTION     17.47    17.47     0  03:01      0.0757      0.0759       2.380
  HS02004881           JUNCTION      7.55    79.19     0  03:01      0.0331       0.357       0.101
  HS02004876           JUNCTION     14.15    72.10     0  03:01      0.0636       0.324       0.171
  HS02004870           JUNCTION     14.17    58.27     0  03:01      0.0626       0.261       0.043
  HS02004862           JUNCTION     13.95    44.46     0  03:01      0.0685       0.198       0.089
  HS02004856           JUNCTION     10.64    30.79     0  03:01      0.0471       0.131       1.117
  HS02004852           JUNCTION      0.00    20.44     0  03:01           0       0.084       0.069
  HS02004848           JUNCTION     32.07    32.07     0  03:01       0.151       0.151       0.033
  HS02004842           JUNCTION      0.00    11.42     0  03:01           0      0.0801      19.389
  HS02004837           JUNCTION     30.75    41.91     0  03:01       0.288       0.355       0.230
  HS02004830           JUNCTION      0.15    41.84     0  03:01     0.00423       0.346       0.358
  HS02004824           JUNCTION     40.25    81.79     0  03:01       0.197       0.542       0.100
  HS02004817           JUNCTION      0.60    82.18     0  03:01      0.0169       0.558       3.079
  HS02004807           JUNCTION     26.15   107.24     0  03:01       0.115       0.657       0.656
  HS02004802           JUNCTION      0.00   106.49     0  03:01           0       0.653       0.618
  HS02004799           JUNCTION     21.02   227.51     0  03:01      0.0932        1.06       0.236
  HS02004792           JUNCTION     88.55   207.32     0  03:01       0.396       0.966       0.043
  HS02004788           JUNCTION     30.78   119.37     0  03:01       0.177       0.571       0.068
  HS02004785           JUNCTION      0.15    89.79     0  03:01     0.00423       0.396       0.125
  HS02004777           JUNCTION      0.03    90.24     0  03:01    0.000846       0.397       1.326
  HS02004770           JUNCTION     73.89    90.93     0  03:01       0.324       0.398       0.787
  HS02004480           JUNCTION      0.00   269.27     0  03:01           0        1.25       0.099
  HS02004479           JUNCTION      0.00    42.82     0  03:02           0       0.204       0.360
  HS02004478           JUNCTION      0.00   375.17     0  03:01           0        1.89       0.018
  YS02001745           JUNCTION    297.18   392.84     0  02:39        2.34        2.35       0.446
  YS02001748           JUNCTION      0.04   587.85     0  02:40     0.00127        2.34       0.978
  YS02001751           JUNCTION      0.01   309.97     0  02:33     0.00031         2.3       1.027
  YS02001754           JUNCTION      0.26   308.17     0  03:00     0.00733        2.29       1.090
  YS02001762           JUNCTION      0.00   326.35     0  02:53           0        1.76       1.206
  YS02001765           JUNCTION      0.00   326.45     0  02:53           0        1.76       1.385
  YS02001767           JUNCTION      0.54   326.41     0  02:53      0.0151        1.78       2.032
  YS02001770           JUNCTION    373.02   373.02     0  03:01        2.63        2.64       1.198
  YS02001774           JUNCTION      0.00   261.96     0  03:19           0       0.851       3.041
  YS02001779           JUNCTION      0.01   262.26     0  03:19    0.000141       0.819       1.901
  YS02001882           JUNCTION      0.00    29.88     0  02:45           0      0.0178      14.176
  YS02001884           JUNCTION      0.00    63.40     0  02:39           0      0.0547      12.537
  YS02001759           JUNCTION    359.84   641.84     0  02:53        2.43        4.15       0.555
  YS02001887           JUNCTION    453.35   453.54     0  03:01         2.8        2.83       0.299
  YS02001890           JUNCTION      0.00   453.39     0  03:01           0        2.79       0.329
  YS02001898           JUNCTION      0.00   453.55     0  03:01           0        2.77       0.116
  YS02001901           JUNCTION      0.00   453.58     0  03:01           0        2.77       0.249
  YS02001904           JUNCTION      0.00   453.57     0  03:01           0        2.77       0.225
  YS02001907           JUNCTION      0.00   872.50     0  02:59           0        6.12       0.392
  YS02001910           JUNCTION      0.00   446.67     0  02:54           0        3.37       0.349
  YS02001915           JUNCTION    263.65   446.52     0  02:54        1.96        3.39       0.180
  YS02001918           JUNCTION      0.00   211.85     0  02:54           0        1.44       0.133
  YS02001619           JUNCTION    257.27   257.27     0  03:01        1.95        1.95       0.634
  YS02001629           JUNCTION      0.00   203.76     0  02:48           0        1.63       1.807
  YS02001641           JUNCTION      0.00   430.32     0  02:48           0        3.84       0.550
  YS02001644           JUNCTION    282.70   980.59     0  03:19        2.25        7.99       0.327
  YS02001652           JUNCTION      0.00   369.13     0  03:00           0        2.04       1.150
  YS02001655           JUNCTION      0.15   368.74     0  03:00     0.00434        2.06       1.233
  YS02001920           JUNCTION      2.87   211.90     0  02:54      0.0809        1.43       0.202
  YS02001923           JUNCTION      0.04   233.42     0  02:54     0.00106        1.34       0.049
  YS02001926           JUNCTION      0.05   186.17     0  02:54     0.00147        1.34       0.248
  YS02001929           JUNCTION    129.40   129.40     0  03:01        1.34        1.34       0.040
  YS02001658           JUNCTION      0.00   639.77     0  02:36           0         2.1       1.045
  YS02001661           JUNCTION      0.00   682.32     0  02:52           0        2.82      -0.126
  YS02001664           JUNCTION    327.80   358.42     0  02:51        2.09        2.81       0.217
  YS02001622           JUNCTION      0.00   257.33     0  03:01           0        1.94       1.674
  YS02001633           JUNCTION    287.40   429.48     0  02:48        2.32         3.9       0.826
  YS02001649           JUNCTION      0.00   914.92     0  02:49           0        4.92       0.758
  YS02001757           JUNCTION      0.00  1736.20     0  02:49           0         9.3       1.001
  YS02001895           JUNCTION      0.00   453.37     0  03:01           0        2.78       0.178
  YS02001625           JUNCTION      0.00   257.36     0  03:01           0         1.9       2.045
  YS02163301           JUNCTION      0.00   204.09     0  02:48           0         1.6       1.510
  YS02163601           JUNCTION      0.11   429.68     0  02:48      0.0031        3.86       0.782
  YS02164001           JUNCTION      0.00   429.78     0  02:48           0        3.84       0.524
  YS02001647           JUNCTION      0.00   652.43     0  02:48           0         3.9       0.722
  YSB1154              JUNCTION     25.19    25.19     0  03:01       0.113       0.114       1.285
  YSB6556              JUNCTION      0.00    24.91     0  03:01           0       0.115       1.100
  YSB1174              JUNCTION     19.06    19.06     0  03:01      0.0821      0.0827       1.581
  YSB1171              JUNCTION      0.00    43.19     0  03:01           0       0.203       3.220
  YS02006553           JUNCTION      0.00   667.09     0  03:17           0         5.9       0.262
  YS02006561           JUNCTION      0.00   964.25     0  03:00           0        8.42       0.008
  YS02006556           JUNCTION      0.00   667.11     0  03:17           0         5.9       0.190
  YS02006558           JUNCTION    392.87   964.37     0  03:00        2.57        8.45       0.063
  YS02001783           JUNCTION      0.00   964.18     0  03:00           0        8.42       0.028
  YS02001784           JUNCTION      1.06   965.24     0  03:01      0.0299        8.44       0.044
  YS02001786           JUNCTION      0.06   965.22     0  03:00     0.00159        8.44       0.040
  YS02001788           JUNCTION      0.07   965.29     0  03:00       0.002        8.44       0.024
  YS02001790           JUNCTION      0.15   965.52     0  03:00     0.00437        8.44       0.029
  YS02001791           JUNCTION      0.00   965.54     0  03:00           0        8.44       0.016
  YS02001793           JUNCTION      0.00   965.56     0  03:00           0        8.44       0.003
  WS02004139           JUNCTION      0.32   393.99     0  00:00     0.00905         6.1       0.557
  WSC                  OUTFALL       0.00   926.19     0  02:55           0          15       0.000
  3                    OUTFALL       0.00   597.65     0  00:00           0        4.08       0.000
  4                    OUTFALL       0.00   128.26     0  03:20           0       0.279       0.000
  5                    OUTFALL       0.00     0.00     0  00:00           0           0       0.000 ltr
  JK-storage           STORAGE       0.00   965.57     0  03:00           0        8.59      -4.797
  CC-storage           STORAGE       0.00  1736.32     0  02:49           0        8.25       0.692
  XR-storage           STORAGE     690.11   690.11     0  03:01        9.61        10.2      -0.056
  
  
  **********************
  Node Surcharge Summary
  **********************
  
  Surcharging occurs when water rises above the top of the highest conduit.
  ---------------------------------------------------------------------
                                               Max. Height   Min. Depth
                                   Hours       Above Crown    Below Rim
  Node                 Type      Surcharged         Meters       Meters
  ---------------------------------------------------------------------
  WS02004404           JUNCTION        0.54          0.060        2.720
  WS02004406           JUNCTION        0.39          0.032        2.418
  WS02004405           JUNCTION        0.48          0.047        2.753
  WS02006109           JUNCTION        2.11          0.286        1.534
  WS02006110           JUNCTION        0.81          0.111        1.739
  WS02006112           JUNCTION        1.20          0.196        1.484
  WS02006230           JUNCTION        0.50          0.088        1.482
  WS02006231           JUNCTION        0.57          0.115        1.415
  WS02006232           JUNCTION        1.85          0.246        1.234
  WS02006234           JUNCTION        0.76          0.136        1.104
  WS02006235           JUNCTION        1.17          0.174        1.116
  WS02006238           JUNCTION        1.41          0.184        1.246
  WS02006240           JUNCTION        0.65          0.078        1.312
  WS02006242           JUNCTION        1.06          0.105        0.715
  WS02006239           JUNCTION        0.82          0.113        1.177
  WS02006252           JUNCTION        1.53          0.191        0.909
  WS02006256           JUNCTION        0.01          1.050        0.000
  WS02006228           JUNCTION        2.00          0.341        1.859
  YS02001748           JUNCTION        5.08          1.190        0.000
  YS02001751           JUNCTION        5.25          1.199        0.001
  YS02001754           JUNCTION        5.44          1.141        0.009
  YS02001762           JUNCTION        5.64          1.086        0.064
  YS02001765           JUNCTION        5.61          1.017        0.083
  YS02001767           JUNCTION        5.59          0.973        0.057
  YS02001770           JUNCTION        5.57          0.920        0.000
  YS02001774           JUNCTION        5.63          1.011        0.039
  YS02001779           JUNCTION        5.42          0.680        0.000
  YS02001882           JUNCTION        0.80          0.610        0.220
  YS02001884           JUNCTION        0.83          0.652        0.218
  YS02001759           JUNCTION        5.66          1.118        0.092
  YS02001887           JUNCTION        0.92          0.737        0.213
  YS02001890           JUNCTION        0.95          0.760        0.000
  YS02001898           JUNCTION        0.75          0.523        0.217
  YS02001901           JUNCTION        0.88          0.671        0.199
  YS02001904           JUNCTION        0.86          0.634        0.216
  YS02001907           JUNCTION        1.48          0.950        0.000
  YS02001910           JUNCTION        1.00          0.778        0.322
  YS02001915           JUNCTION        0.78          0.589        0.411
  YS02001918           JUNCTION        0.53          0.268        0.542
  YS02001619           JUNCTION        5.24          0.610        0.000
  YS02001629           JUNCTION        5.26          0.470        0.000
  YS02001641           JUNCTION        5.62          0.964        0.136
  YS02001644           JUNCTION        5.62          0.920        0.000
  YS02001652           JUNCTION        5.49          1.130        0.000
  YS02001655           JUNCTION        5.27          1.200        0.000
  YS02001920           JUNCTION        0.56          0.340        0.800
  YS02001658           JUNCTION        5.11          1.300        0.000
  YS02001661           JUNCTION        0.24          1.390        0.000
  YS02001622           JUNCTION        5.28          0.620        0.000
  YS02001633           JUNCTION        5.60          0.947        0.113
  YS02001649           JUNCTION        5.64          1.050        0.000
  YS02001757           JUNCTION        5.74          1.210        0.000
  YS02001895           JUNCTION        0.77          0.554        0.196
  YS02001625           JUNCTION        5.54          0.780        0.000
  YS02163301           JUNCTION        5.58          0.901        0.129
  YS02163601           JUNCTION        5.64          1.023        0.057
  YS02164001           JUNCTION        5.61          0.962        0.138
  YS02001647           JUNCTION        5.51          0.805        0.095
  YS02006553           JUNCTION        1.55          0.965        0.225
  YS02006561           JUNCTION        0.66          0.281        0.869
  YS02006556           JUNCTION        1.20          0.880        0.470
  YS02006558           JUNCTION        1.17          0.859        0.541
  YS02001783           JUNCTION        1.30          1.162        0.438
  YS02001784           JUNCTION        1.33          1.164        0.326
  YS02001786           JUNCTION        1.30          1.029        0.401
  YS02001788           JUNCTION        1.28          1.452        0.028
  YS02001790           JUNCTION        2.17          1.157        0.000
  YS02001791           JUNCTION        2.21          0.960        0.960
  YS02001793           JUNCTION        2.28          1.397        1.203
  
  
  *********************
  Node Flooding Summary
  *********************
  
  Flooding refers to all water that overflows a node, whether it ponds or not.
  --------------------------------------------------------------------------
                                                             Total   Maximum
                                 Maximum   Time of Max       Flood    Ponded
                        Hours       Rate    Occurrence      Volume     Depth
  Node                 Flooded       LPS   days hr:min    10^6 ltr    Meters
  --------------------------------------------------------------------------
  WS02006256              0.01    406.11      0  00:00       0.001     0.000
  YS02001748              0.01    213.84      0  02:41       0.000     0.000
  YS02001770              0.01      5.82      0  02:41       0.000     0.000
  YS02001779              2.47    262.17      0  03:19       0.797     0.000
  YS02001890              0.01      0.10      0  03:01       0.000     0.000
  YS02001907              0.38    288.77      0  02:59       0.211     0.000
  YS02001619              0.01     29.82      0  02:36       0.000     0.000
  YS02001629              0.01     29.70      0  02:39       0.000     0.000
  YS02001644              3.73    980.50      0  03:19       5.989     0.000
  YS02001652              0.01     23.05      0  02:58       0.000     0.000
  YS02001655              0.01    135.01      0  02:33       0.000     0.000
  YS02001658              0.01    361.52      0  02:37       0.001     0.000
  YS02001661              0.01    182.03      0  02:58       0.001     0.000
  YS02001622              0.01     24.47      0  02:37       0.000     0.000
  YS02001649              0.09     50.50      0  02:58       0.005     0.000
  YS02001757              0.01     20.09      0  02:40       0.000     0.000
  YS02001625              0.87    168.61      0  03:01       0.241     0.000
  YS02001790              0.01    112.58      0  02:36       0.000     0.000
  JK-storage              1.89    962.12      0  03:10       2.953     0.000
  XR-storage              4.39    585.64      0  03:01       3.192     0.000
  
  
  **********************
  Storage Volume Summary
  **********************
  
  --------------------------------------------------------------------------------------------------
                         Average     Avg  Evap Exfil       Maximum     Max    Time of Max    Maximum
                          Volume    Pcnt  Pcnt  Pcnt        Volume    Pcnt     Occurrence    Outflow
  Storage Unit           1000 m3    Full  Loss  Loss       1000 m3    Full    days hr:min        LPS
  --------------------------------------------------------------------------------------------------
  JK-storage               0.138      47     0     0         0.291     100       0  02:37     600.00
  CC-storage               3.067      20     0     0         3.823      24       0  05:12     399.99
  XR-storage               0.793      86     0     0         0.926     100       0  02:58     380.00
  
  
  ***********************
  Outfall Loading Summary
  ***********************
  
  -----------------------------------------------------------
                         Flow       Avg       Max       Total
                         Freq      Flow      Flow      Volume
  Outfall Node           Pcnt       LPS       LPS    10^6 ltr
  -----------------------------------------------------------
  WSC                   99.99    590.26    926.19      15.012
  3                     83.97    225.49    597.65       4.079
  4                     33.35     38.45    128.26       0.279
  5                      0.00      0.00      0.00       0.000
  -----------------------------------------------------------
  System                54.33    854.20   1518.79      19.370
  
  
  ********************
  Link Flow Summary
  ********************
  
  -----------------------------------------------------------------------------
                                 Maximum  Time of Max   Maximum    Max/    Max/
                                  |Flow|   Occurrence   |Veloc|    Full    Full
  Link                 Type          LPS  days hr:min     m/sec    Flow   Depth
  -----------------------------------------------------------------------------
  WS02003066WSF200     CONDUIT    664.60     0  03:05      2.92    0.11    0.26
  WS02006287WS02006284 CONDUIT    375.44     0  03:02      1.98    0.17    0.29
  WS02006284WS02006280 CONDUIT    375.54     0  03:02      2.22    0.16    0.27
  WS02006280WS02006229 CONDUIT    375.58     0  03:02      3.58    0.08    0.19
  WS02006229WS02006228 CONDUIT    655.28     0  03:02      1.30    2.17    1.00
  WS02006256WS02006235 CONDUIT    177.52     0  00:01      2.73    1.88    1.00
  WS02006253WS02006251 CONDUIT     80.93     0  03:01      0.47    0.24    0.93
  WS02006252WS02006251 CONDUIT    400.00     0  06:40      3.18    1.47    1.00
  WS02006251WS02006249 CONDUIT    419.68     0  03:20      1.16    1.21    0.89
  WS02006249WS02006248 CONDUIT    337.21     0  06:20      1.08    1.85    0.85
  WS02006248WS02006247 CONDUIT    335.85     0  06:20      1.03    0.73    0.90
  WS02006247WS02006245 CONDUIT    335.31     0  06:21      0.99    2.66    0.94
  WS02006245WS02006243 CONDUIT    335.87     0  06:21      1.03    0.99    0.97
  WS02006243WS02006242 CONDUIT    336.32     0  06:21      0.94    0.72    1.00
  WS02006242WS02006240 CONDUIT    335.68     0  03:51      0.92    1.33    1.00
  WS02006240WS02006239 CONDUIT    336.53     0  03:51      0.96    1.06    1.00
  WS02006239WS02006238 CONDUIT    335.94     0  03:51      0.92    1.07    1.00
  WS02006238WS02006235 CONDUIT    335.84     0  03:52      1.32    0.75    1.00
  WS02006235WS02006234 CONDUIT    393.41     0  06:41      1.03    4.15    1.00
  WS02006234WS02006232 CONDUIT    390.77     0  04:51      1.17    0.79    1.00
  WS02006232WS02006231 CONDUIT    390.79     0  04:51      1.07    0.82    1.00
  WS02006231WS02006230 CONDUIT    389.53     0  04:52      1.32    5.91    1.00
  WS02006230WS02006229 CONDUIT    399.35     0  04:52      1.04    8.89    1.00
  WS02006228WS02006109 CONDUIT    655.25     0  03:02      1.30    2.86    1.00
  WS02006116WS02004401 CONDUIT    667.91     0  03:04      0.86    0.92    0.97
  WS02006115WS02006116 CONDUIT    667.54     0  03:01      0.90    0.86    0.90
  WS02006113WS02006111 CONDUIT    690.23     0  03:02      2.59    0.83    0.54
  WS02006112WS02006115 CONDUIT    670.72     0  03:01      0.88    0.40    0.94
  WS02006111WS02006112 CONDUIT    658.45     0  03:02      1.72    0.31    0.72
  WS02006110WS02006113 CONDUIT    656.88     0  03:02      1.50    0.60    0.82
  WS02006109WS02006110 CONDUIT    656.53     0  03:02      1.31    1.26    1.00
  WS02004411WS02004412 CONDUIT    664.76     0  03:05      1.03    0.94    0.76
  WS02004401WS02004402 CONDUIT    666.90     0  03:02      0.85    0.80    0.99
  WS02004413WS02003067 CONDUIT    664.62     0  03:06      1.25    0.28    0.64
  WS02004412WS02004413 CONDUIT    664.79     0  03:05      0.94    0.45    0.84
  WS02004410WS02004411 CONDUIT    664.98     0  03:04      1.03    0.91    0.76
  WS02004409WS02004410 CONDUIT    665.22     0  03:03      1.04    0.86    0.76
  WS02004407WS02004409 CONDUIT    665.74     0  03:03      1.53    0.24    0.54
  WS02004406WS02004407 CONDUIT    666.02     0  03:03      1.20    0.30    0.67
  WS02004405WS02004406 CONDUIT    665.79     0  03:03      0.85    1.31    1.00
  WS02004404WS02004405 CONDUIT    665.67     0  03:03      0.85    6.52    1.00
  WS02004403WS02004404 CONDUIT    665.45     0  03:03      0.85    0.48    1.00
  WS02004402WS02004403 CONDUIT    666.35     0  03:02      0.85    0.96    1.00
  WS02004139WS02001211 CONDUIT    380.30     0  01:20      0.90    0.48    0.57
  WS02004138WS02004139 CONDUIT    393.66     0  00:00      3.65    0.08    0.42
  WS02003067WS02003066 CONDUIT    664.59     0  03:06      1.36    0.21    0.45
  WS02001213WS02003059 CONDUIT    387.60     0  01:20      0.91    0.64    0.74
  WS02001212WS02001213 CONDUIT    387.60     0  01:20      1.32    0.60    0.43
  WS02001211WS02001212 CONDUIT    387.61     0  01:20      0.78    0.30    0.60
  WS02003072WS02003073 CONDUIT    924.69     0  02:54      1.72    2.00    0.48
  WS02003069WS02003072 CONDUIT    925.02     0  02:53      1.61    0.45    0.51
  WS02003060WS02003069 CONDUIT    925.37     0  02:53      1.86    0.36    0.45
  WS02003059WS02003060 CONDUIT    387.51     0  01:21      0.95    0.25    0.65
  HS02004901HS02004770 CONDUIT     17.70     0  03:01      0.07    0.07    0.39
  HS02004876HS02004881 CONDUIT     71.90     0  03:01      0.92    0.76    0.11
  HS02004870HS02004876 CONDUIT     58.03     0  03:01      0.63    0.04    0.13
  HS02004842HS02004848 CONDUIT     11.42     0  03:01      0.05    0.01    0.30
  HS02004837HS02004842 CONDUIT     11.94     0  03:02      0.41    0.01    0.32
  HS02004830HS02004837 CONDUIT     41.69     0  03:01      0.56    0.04    0.11
  HS02004824HS02004830 CONDUIT     41.67     0  03:01      0.58    0.05    0.10
  HS02004817HS02004824 CONDUIT     81.58     0  03:01      0.25    0.04    0.47
  HS02004770HS02004777 CONDUIT     90.21     0  03:01      0.32    0.16    0.41
  HS02004799HS02004480 CONDUIT    226.97     0  03:01      0.78    0.29    0.42
  HS02004792HS02004799 CONDUIT    206.60     0  03:01      0.88    0.13    0.33
  HS02004788HS02004792 CONDUIT    118.94     0  03:01      1.01    0.08    0.17
  HS02004785HS02004788 CONDUIT     89.52     0  03:02      0.66    0.67    0.19
  HS02004777HS02004785 CONDUIT     89.64     0  03:01      0.38    0.11    0.33
  HS02004480HS02004478 CONDUIT    269.12     0  03:01      1.20    1.13    0.32
  HS02004479HS02004480 CONDUIT     44.17     0  03:02      0.23    0.04    0.40
  HS02004862HS02004870 CONDUIT     44.23     0  03:01      0.64    0.05    0.10
  HS02004848HS02004852 CONDUIT     20.44     0  03:01      0.44    0.02    0.07
  HS02004856HS02004862 CONDUIT     30.56     0  03:01      0.47    0.03    0.09
  HS02004852HS02004856 CONDUIT     20.26     0  03:01      0.24    0.02    0.12
  HS02004802HS02004478 CONDUIT    106.59     0  03:02      0.45    0.09    0.35
  HS02004478WS02006287 CONDUIT    375.27     0  03:01      1.68    0.11    0.25
  HS02004817HS02004807 CONDUIT     82.18     0  03:01      0.19    0.05    0.62
  HS02004807HS02004802 CONDUIT    106.49     0  03:01      0.38    0.20    0.40
  YS02001759YS02001757 CONDUIT    641.77     0  02:53      0.82    0.46    1.00
  YS02001762YS02001759 CONDUIT    326.10     0  02:53      0.42    0.38    1.00
  YS02001765YS02001762 CONDUIT    326.35     0  02:53      0.42    0.31    1.00
  YS02001770YS02001767 CONDUIT    325.88     0  02:53      0.41    1.29    1.00
  YS02001774YS02001770 CONDUIT    261.96     0  03:19      0.33    0.17    1.00
  YS02001779YS02001774 CONDUIT    262.25     0  03:19      0.33    0.13    1.00
  YS02001649YS02001757 CONDUIT    914.91     0  02:49      1.16    0.56    1.00
  YS02001767YS02001765 CONDUIT    326.45     0  02:53      0.42    0.41    1.00
  YS02006561YS02001783 CONDUIT    964.18     0  03:00      2.12    0.50    1.00
  YS02001783YS02001784 CONDUIT    964.18     0  03:01      1.92    1.33    1.00
  YS02001784YS02001785 CONDUIT    965.17     0  03:00      1.92    2.25    1.00
  YS02001788YS02001790 CONDUIT    965.37     0  03:00      2.28    0.71    1.00
  YS02001790YS02001791 CONDUIT    965.54     0  03:00      2.77    1.05    1.00
  YS02001791YS02001793 CONDUIT    965.56     0  03:00      5.56    0.41    1.00
  YS02001910YS02001907 CONDUIT    446.62     0  02:54      0.57    0.25    1.00
  YS02001786YS02001788 CONDUIT    965.22     0  03:00      2.20    1.86    1.00
  YS02001915YS02001910 CONDUIT    446.67     0  02:54      0.57    0.22    1.00
  YS02001918YS02001915 CONDUIT    212.43     0  02:54      0.44    0.12    1.00
  YS02001923YS02001920 CONDUIT    209.03     0  02:54      0.68    0.09    1.00
  YS02001926YS02001923 CONDUIT    233.38     0  02:54      0.79    0.33    0.89
  YS02001929YS02001926 CONDUIT    186.11     0  02:54      0.84    0.09    0.80
  YS02001920YS02001918 CONDUIT    211.85     0  02:54      0.67    0.20    1.00
  YS02001629YS02163301 CONDUIT    204.09     0  02:48      0.26    0.25    1.00
  YS02001619YS02001622 CONDUIT    257.33     0  03:01      0.61    0.38    1.00
  YS02001622YS02001625 CONDUIT    257.36     0  03:01      0.33    0.14    1.00
  YS02001625YS02001629 CONDUIT    203.76     0  02:48      0.26    0.10    1.00
  YS02163301YS02001633 CONDUIT    204.36     0  02:48      0.26    0.19    1.00
  YS02163601YS02164001 CONDUIT    429.78     0  02:48      0.55    0.38    1.00
  YS02164001YS02001641 CONDUIT    430.32     0  02:48      0.55    0.59    1.00
  YS02001641YS02001644 CONDUIT    430.37     0  02:48      0.55    1.39    1.00
  YS02001647YS02001649 CONDUIT    652.53     0  02:48      0.83    0.34    1.00
  YS02006553YS02006556 CONDUIT    667.11     0  03:17      0.85    0.57    1.00
  YS02006556YS02006558 CONDUIT    667.28     0  03:17      0.85    0.53    1.00
  YSB6556YSB1171       CONDUIT     24.81     0  03:03      0.09    0.03    0.67
  YS02001907YS02006553 CONDUIT    667.09     0  03:17      0.74    0.78    1.00
  YS02006558YS02006561 CONDUIT    964.25     0  03:00      3.41    2.13    1.00
  YS02001633YS02163601 CONDUIT    429.57     0  02:48      0.55    0.45    1.00
  YS02001644YS02001647 CONDUIT    652.43     0  02:48      0.83    0.38    1.00
  YS02001745YS02001748 CONDUIT    587.81     0  02:40      1.48    0.23    0.94
  YS02001748YS02001751 CONDUIT    309.96     0  02:33      1.05    0.16    1.00
  YS02001751YS02001754 CONDUIT    307.91     0  03:00      0.88    0.15    1.00
  YS02001754YS02001757 CONDUIT    308.17     0  03:00      0.39    0.12    1.00
  YS02001882YS02001884 CONDUIT     29.88     0  02:45      0.09    0.03    1.00
  YS02001884YS02001887 CONDUIT     63.40     0  02:39      0.09    0.08    1.00
  YS02001890YS02001895 CONDUIT    453.37     0  03:01      0.58    0.21    1.00
  YS02001895YS02001898 CONDUIT    453.55     0  03:01      0.58    0.79    1.00
  YS02001898YS02001901 CONDUIT    453.58     0  03:01      0.58    0.29    1.00
  YS02001901YS02001904 CONDUIT    453.57     0  03:01      0.58    0.70    1.00
  YS02001904YS02001907 CONDUIT    453.62     0  03:01      0.58    0.16    1.00
  YS02001887YS02001890 CONDUIT    453.39     0  03:01      0.58    0.78    1.00
  YS02001652YS02001649 CONDUIT    369.39     0  03:00      0.50    0.18    1.00
  YS02001655YS02001652 CONDUIT    369.13     0  03:00      0.93    0.18    1.00
  YS02001658YS02001655 CONDUIT    368.59     0  03:00      1.21    0.16    1.00
  YS02001661YS02001658 CONDUIT    639.77     0  02:36      1.56    0.25    1.00
  YS02001664YS02001661 CONDUIT    682.32     0  02:52      1.49    0.21    0.71
  YSB1154YSB6556       CONDUIT     24.91     0  03:01      0.19    0.04    0.56
  YSB1174YSB1171       CONDUIT     18.78     0  03:01      0.07    0.03    0.68
  YSB1171HS02004479    CONDUIT     42.82     0  03:02      0.54    0.03    0.53
  HS02004881HS02006253 CONDUIT     79.15     0  03:01      1.91    0.02    0.25
  YS02001793JiankangQianchi CONDUIT    965.57     0  03:00     13.02    0.08    1.00
  YS02001757CaochengTiaoxuchi CONDUIT   1736.32     0  02:49      2.28    0.76    1.00
  WSF200WS02003060     CONDUIT    664.64     0  03:05      1.98    0.15    0.36
  1                    CONDUIT    926.19     0  02:55      3.26    0.32    0.39
  2                    CONDUIT    128.26     0  03:20      5.19    0.31    0.38
  3                    CONDUIT    597.65     0  00:00     10.07    0.95    0.86
  4                    CONDUIT      0.00     0  00:00      0.00    0.00    0.00
  CC-Pump-1            PUMP       200.00     0  02:50              1.00
  CC-Pump-2            PUMP       200.00     0  02:30              1.00
  JK-Pump-1            PUMP       300.00     0  00:00              1.00
  JK-Pump-2            PUMP       300.00     0  00:00              1.00
  XR-Pump-1            PUMP        95.00     0  00:00              1.00
  XR-Pump-2            PUMP        95.00     0  00:00              1.00
  XR-Pump-3            PUMP        95.00     0  00:00              1.00
  XR-Pump-4            PUMP        95.00     0  00:00              1.00
  
  
  ***************************
  Flow Classification Summary
  ***************************
  
  -------------------------------------------------------------------------------------
                      Adjusted    ---------- Fraction of Time in Flow Class ---------- 
                       /Actual         Up    Down  Sub   Sup   Up    Down  Norm  Inlet 
  Conduit               Length    Dry  Dry   Dry   Crit  Crit  Crit  Crit  Ltd   Ctrl  
  -------------------------------------------------------------------------------------
  WS02003066WSF200        1.00   0.02  0.04  0.00  0.00  0.94  0.00  0.00  0.60  0.00
  WS02006287WS02006284    1.00   0.03  0.01  0.00  0.60  0.36  0.00  0.00  0.65  0.00
  WS02006284WS02006280    1.00   0.04  0.00  0.00  0.00  0.00  0.00  0.96  0.00  0.00
  WS02006280WS02006229    1.00   0.04  0.00  0.00  0.00  0.00  0.00  0.96  0.00  0.00
  WS02006229WS02006228    1.00   0.00  0.00  0.00  0.98  0.00  0.00  0.01  0.00  0.00
  WS02006256WS02006235    1.00   0.00  0.00  0.00  1.00  0.00  0.00  0.00  0.00  0.00
  WS02006253WS02006251    1.00   0.02  0.01  0.00  0.97  0.00  0.00  0.00  0.00  0.00
  WS02006252WS02006251    1.00   0.06  0.00  0.00  0.00  0.00  0.94  0.00  0.00  0.00
  WS02006251WS02006249    1.00   0.00  0.00  0.00  1.00  0.00  0.00  0.00  0.23  0.00
  WS02006249WS02006248    1.00   0.00  0.02  0.00  0.93  0.00  0.05  0.00  0.00  0.00
  WS02006248WS02006247    1.00   0.02  0.00  0.00  0.97  0.00  0.00  0.01  0.11  0.00
  WS02006247WS02006245    1.00   0.02  0.00  0.00  0.97  0.00  0.00  0.02  0.00  0.00
  WS02006245WS02006243    1.00   0.01  0.00  0.00  0.95  0.00  0.00  0.03  0.02  0.00
  WS02006243WS02006242    1.00   0.01  0.00  0.00  0.99  0.00  0.00  0.00  0.22  0.00
  WS02006242WS02006240    1.00   0.00  0.00  0.00  1.00  0.00  0.00  0.00  0.00  0.00
  WS02006240WS02006239    1.00   0.00  0.00  0.00  0.97  0.00  0.00  0.03  0.02  0.00
  WS02006239WS02006238    1.00   0.00  0.00  0.00  1.00  0.00  0.00  0.00  0.00  0.00
  WS02006238WS02006235    1.00   0.00  0.00  0.00  1.00  0.00  0.00  0.00  0.00  0.00
  WS02006235WS02006234    1.00   0.00  0.00  0.00  0.96  0.00  0.04  0.00  0.00  0.00
  WS02006234WS02006232    1.00   0.00  0.00  0.00  1.00  0.00  0.00  0.00  0.08  0.00
  WS02006232WS02006231    1.00   0.00  0.00  0.00  0.99  0.00  0.01  0.00  0.00  0.00
  WS02006231WS02006230    1.00   0.00  0.00  0.00  0.66  0.00  0.33  0.00  0.00  0.00
  WS02006230WS02006229    1.00   0.00  0.00  0.00  0.98  0.00  0.00  0.02  0.01  0.00
  WS02006228WS02006109    1.00   0.00  0.00  0.00  1.00  0.00  0.00  0.00  0.00  0.00
  WS02006116WS02004401    1.00   0.02  0.00  0.00  0.98  0.00  0.00  0.00  0.00  0.00
  WS02006115WS02006116    1.00   0.02  0.00  0.00  0.97  0.00  0.00  0.01  0.01  0.00
  WS02006113WS02006111    1.00   0.02  0.00  0.00  0.00  0.98  0.00  0.00  0.10  0.00
  WS02006112WS02006115    1.00   0.02  0.00  0.00  0.98  0.00  0.00  0.00  0.00  0.00
  WS02006111WS02006112    1.00   0.02  0.00  0.00  0.98  0.00  0.00  0.00  0.92  0.00
  WS02006110WS02006113    1.00   0.01  0.00  0.00  0.98  0.00  0.00  0.00  0.00  0.00
  WS02006109WS02006110    1.00   0.00  0.01  0.00  0.98  0.00  0.00  0.00  0.00  0.00
  WS02004411WS02004412    1.00   0.05  0.00  0.00  0.95  0.00  0.00  0.00  0.00  0.00
  WS02004401WS02004402    1.00   0.02  0.00  0.00  0.98  0.00  0.00  0.00  0.00  0.00
  WS02004413WS02003067    1.00   0.05  0.01  0.00  0.00  0.00  0.94  0.00  0.00  0.00
  WS02004412WS02004413    1.00   0.05  0.00  0.00  0.95  0.00  0.00  0.00  0.01  0.00
  WS02004410WS02004411    1.00   0.04  0.00  0.00  0.96  0.00  0.00  0.00  0.00  0.00
  WS02004409WS02004410    1.00   0.04  0.00  0.00  0.96  0.00  0.00  0.00  0.00  0.00
  WS02004407WS02004409    1.00   0.04  0.00  0.00  0.95  0.00  0.00  0.00  0.80  0.00
  WS02004406WS02004407    1.00   0.00  0.04  0.00  0.96  0.00  0.00  0.00  0.00  0.00
  WS02004405WS02004406    1.00   0.00  0.00  0.00  1.00  0.00  0.00  0.00  0.02  0.00
  WS02004404WS02004405    1.00   0.00  0.00  0.00  1.00  0.00  0.00  0.00  0.00  0.00
  WS02004403WS02004404    1.00   0.00  0.02  0.00  0.98  0.00  0.00  0.00  0.02  0.00
  WS02004402WS02004403    1.00   0.02  0.00  0.00  0.98  0.00  0.00  0.00  0.00  0.00
  WS02004139WS02001211    1.00   0.00  0.00  0.00  1.00  0.00  0.00  0.00  0.00  0.00
  WS02004138WS02004139    1.00   0.00  0.00  0.00  0.99  0.01  0.00  0.00  1.00  0.00
  WS02003067WS02003066    1.00   0.06  0.00  0.00  0.94  0.00  0.00  0.00  0.00  0.00
  WS02001213WS02003059    1.00   0.00  0.00  0.00  0.99  0.00  0.00  0.00  0.00  0.00
  WS02001212WS02001213    1.00   0.00  0.00  0.00  0.92  0.00  0.08  0.00  0.00  0.00
  WS02001211WS02001212    1.00   0.00  0.00  0.00  1.00  0.00  0.00  0.00  0.00  0.00
  WS02003072WS02003073    1.00   0.00  0.00  0.00  0.00  0.00  0.00  1.00  0.00  0.00
  WS02003069WS02003072    1.00   0.00  0.00  0.00  0.99  0.01  0.00  0.00  0.17  0.00
  WS02003060WS02003069    1.00   0.00  0.00  0.00  0.99  0.01  0.00  0.00  0.10  0.00
  WS02003059WS02003060    1.00   0.00  0.00  0.00  0.99  0.01  0.00  0.00  0.00  0.00
  HS02004901HS02004770    1.00   0.03  0.00  0.00  0.97  0.00  0.00  0.00  0.00  0.00
  HS02004876HS02004881    1.00   0.02  0.00  0.00  0.90  0.09  0.00  0.00  0.00  0.00
  HS02004870HS02004876    1.00   0.01  0.00  0.00  0.99  0.00  0.00  0.00  0.95  0.00
  HS02004842HS02004848    1.00   0.00  0.03  0.00  0.97  0.00  0.00  0.00  0.58  0.00
  HS02004837HS02004842    1.00   0.00  0.00  0.00  0.99  0.01  0.00  0.00  0.11  0.00
  HS02004830HS02004837    1.00   0.00  0.00  0.00  1.00  0.00  0.00  0.00  0.99  0.00
  HS02004824HS02004830    1.00   0.00  0.00  0.00  1.00  0.00  0.00  0.00  0.00  0.00
  HS02004817HS02004824    1.00   0.00  0.00  0.00  1.00  0.00  0.00  0.00  1.00  0.00
  HS02004770HS02004777    1.00   0.00  0.03  0.00  0.97  0.00  0.00  0.00  0.03  0.00
  HS02004799HS02004480    1.00   0.00  0.02  0.00  0.96  0.00  0.02  0.00  0.00  0.00
  HS02004792HS02004799    1.00   0.00  0.00  0.00  0.99  0.01  0.00  0.00  0.98  0.00
  HS02004788HS02004792    1.00   0.00  0.00  0.00  0.99  0.01  0.00  0.00  0.98  0.00
  HS02004785HS02004788    1.00   0.00  0.00  0.00  1.00  0.00  0.00  0.00  0.00  0.00
  HS02004777HS02004785    1.00   0.00  0.00  0.00  1.00  0.00  0.00  0.00  0.14  0.00
  HS02004480HS02004478    1.00   0.04  0.00  0.00  0.67  0.00  0.00  0.29  0.00  0.00
  HS02004479HS02004480    1.00   0.02  0.00  0.00  0.98  0.00  0.00  0.00  0.13  0.00
  HS02004862HS02004870    1.00   0.00  0.00  0.00  1.00  0.00  0.00  0.00  0.05  0.00
  HS02004848HS02004852    1.00   0.03  0.00  0.00  0.97  0.00  0.00  0.00  0.61  0.00
  HS02004856HS02004862    1.00   0.00  0.04  0.00  0.96  0.00  0.00  0.00  0.80  0.00
  HS02004852HS02004856    1.00   0.03  0.00  0.00  0.96  0.00  0.00  0.00  0.85  0.00
  HS02004802HS02004478    1.00   0.03  0.00  0.00  0.96  0.00  0.00  0.00  0.03  0.00
  HS02004478WS02006287    1.00   0.04  0.00  0.00  0.73  0.22  0.00  0.00  0.66  0.00
  HS02004817HS02004807    1.00   0.00  0.03  0.00  0.97  0.00  0.00  0.00  0.01  0.00
  HS02004807HS02004802    1.00   0.03  0.00  0.00  0.96  0.00  0.00  0.00  0.00  0.00
  YS02001759YS02001757    1.00   0.00  0.00  0.00  1.00  0.00  0.00  0.00  0.16  0.00
  YS02001762YS02001759    1.00   0.00  0.00  0.00  1.00  0.00  0.00  0.00  0.04  0.00
  YS02001765YS02001762    1.00   0.00  0.00  0.00  1.00  0.00  0.00  0.00  0.16  0.00
  YS02001770YS02001767    1.00   0.00  0.00  0.00  1.00  0.00  0.00  0.00  0.00  0.00
  YS02001774YS02001770    1.00   0.00  0.03  0.00  0.96  0.00  0.00  0.00  0.04  0.00
  YS02001779YS02001774    1.00   0.00  0.00  0.00  1.00  0.00  0.00  0.00  0.21  0.00
  YS02001649YS02001757    1.00   0.00  0.00  0.00  1.00  0.00  0.00  0.00  0.17  0.00
  YS02001767YS02001765    1.00   0.00  0.00  0.00  1.00  0.00  0.00  0.00  0.00  0.00
  YS02006561YS02001783    1.00   0.05  0.00  0.00  0.36  0.59  0.00  0.00  0.55  0.00
  YS02001783YS02001784    1.00   0.00  0.05  0.00  0.95  0.00  0.00  0.00  0.01  0.00
  YS02001784YS02001785    1.00   0.00  0.00  0.00  1.00  0.00  0.00  0.00  0.20  0.00
  YS02001788YS02001790    1.00   0.00  0.00  0.00  0.42  0.58  0.00  0.00  0.49  0.00
  YS02001790YS02001791    1.00   0.00  0.00  0.00  0.39  0.61  0.00  0.00  0.47  0.00
  YS02001791YS02001793    1.00   0.00  0.00  0.00  0.39  0.61  0.00  0.00  0.01  0.00
  YS02001910YS02001907    1.00   0.00  0.00  0.00  0.98  0.00  0.00  0.02  0.13  0.00
  YS02001786YS02001788    1.00   0.00  0.00  0.00  0.41  0.59  0.00  0.00  0.00  0.00
  YS02001915YS02001910    1.00   0.00  0.00  0.00  0.99  0.01  0.00  0.00  0.18  0.00
  YS02001918YS02001915    1.00   0.00  0.01  0.00  0.99  0.00  0.00  0.00  0.58  0.00
  YS02001923YS02001920    1.00   0.00  0.00  0.00  1.00  0.00  0.00  0.00  0.85  0.00
  YS02001926YS02001923    1.00   0.00  0.03  0.00  0.15  0.00  0.83  0.00  0.00  0.00
  YS02001929YS02001926    1.00   0.00  0.03  0.00  0.97  0.00  0.00  0.00  0.78  0.00
  YS02001920YS02001918    1.00   0.00  0.01  0.00  0.99  0.00  0.00  0.00  0.00  0.00
  YS02001629YS02163301    1.00   0.04  0.00  0.00  0.96  0.00  0.00  0.00  0.00  0.00
  YS02001619YS02001622    1.00   0.03  0.00  0.00  0.97  0.00  0.00  0.00  0.00  0.00
  YS02001622YS02001625    1.00   0.03  0.00  0.00  0.97  0.00  0.00  0.00  0.07  0.00
  YS02001625YS02001629    1.00   0.03  0.01  0.00  0.94  0.00  0.01  0.00  0.00  0.00
  YS02163301YS02001633    1.00   0.00  0.04  0.00  0.96  0.00  0.00  0.00  0.00  0.00
  YS02163601YS02164001    1.00   0.00  0.03  0.00  0.97  0.00  0.00  0.00  0.00  0.00
  YS02164001YS02001641    1.00   0.01  0.02  0.00  0.97  0.00  0.00  0.00  0.06  0.00
  YS02001641YS02001644    1.00   0.00  0.01  0.00  0.99  0.00  0.00  0.00  0.00  0.00
  YS02001647YS02001649    1.00   0.00  0.04  0.00  0.95  0.00  0.00  0.00  0.01  0.00
  YS02006553YS02006556    1.00   0.02  0.00  0.00  0.98  0.00  0.00  0.00  0.03  0.00
  YS02006556YS02006558    1.00   0.00  0.00  0.00  1.00  0.00  0.00  0.00  0.00  0.00
  YSB6556YSB1171          1.00   0.02  0.01  0.00  0.97  0.00  0.00  0.00  0.00  0.00
  YS02001907YS02006553    1.00   0.00  0.01  0.00  0.98  0.00  0.00  0.00  0.00  0.00
  YS02006558YS02006561    1.00   0.05  0.00  0.00  0.19  0.77  0.00  0.00  0.48  0.00
  YS02001633YS02163601    1.00   0.00  0.01  0.00  0.99  0.00  0.00  0.00  0.16  0.00
  YS02001644YS02001647    1.00   0.00  0.05  0.00  0.95  0.00  0.00  0.00  0.00  0.00
  YS02001745YS02001748    1.00   0.00  0.00  0.00  0.91  0.01  0.00  0.09  0.04  0.00
  YS02001748YS02001751    1.00   0.00  0.00  0.00  0.98  0.02  0.00  0.00  0.15  0.00
  YS02001751YS02001754    1.00   0.00  0.00  0.00  0.95  0.00  0.00  0.05  0.02  0.00
  YS02001754YS02001757    1.00   0.00  0.00  0.00  0.99  0.01  0.00  0.00  0.20  0.00
  YS02001882YS02001884    1.00   0.04  0.00  0.00  0.96  0.00  0.00  0.00  0.00  0.00
  YS02001884YS02001887    1.00   0.02  0.01  0.00  0.97  0.00  0.00  0.00  0.00  0.00
  YS02001890YS02001895    1.00   0.00  0.04  0.00  0.96  0.00  0.00  0.00  0.00  0.00
  YS02001895YS02001898    1.00   0.04  0.00  0.00  0.95  0.00  0.01  0.00  0.00  0.00
  YS02001898YS02001901    1.00   0.04  0.00  0.00  0.96  0.00  0.00  0.00  0.02  0.00
  YS02001901YS02001904    1.00   0.04  0.00  0.00  0.96  0.00  0.00  0.00  0.00  0.00
  YS02001904YS02001907    1.00   0.00  0.04  0.00  0.96  0.00  0.00  0.00  0.00  0.00
  YS02001887YS02001890    1.00   0.00  0.00  0.00  0.98  0.00  0.01  0.00  0.00  0.00
  YS02001652YS02001649    1.00   0.00  0.00  0.00  1.00  0.00  0.00  0.00  0.18  0.00
  YS02001655YS02001652    1.00   0.00  0.00  0.00  0.95  0.00  0.00  0.05  0.02  0.00
  YS02001658YS02001655    1.00   0.00  0.04  0.00  0.94  0.02  0.00  0.00  0.11  0.00
  YS02001661YS02001658    1.00   0.04  0.00  0.00  0.91  0.06  0.00  0.00  0.06  0.00
  YS02001664YS02001661    1.00   0.03  0.00  0.00  0.89  0.07  0.00  0.00  0.22  0.00
  YSB1154YSB6556          1.00   0.03  0.00  0.00  0.97  0.00  0.00  0.00  0.02  0.00
  YSB1174YSB1171          1.00   0.02  0.01  0.00  0.97  0.00  0.00  0.00  0.00  0.00
  YSB1171HS02004479       1.00   0.02  0.00  0.00  0.98  0.00  0.00  0.00  0.11  0.00
  HS02004881HS02006253    1.00   0.02  0.00  0.00  0.83  0.03  0.00  0.12  0.68  0.00
  YS02001793JiankangQianchi    1.00   0.00  0.00  0.00  0.63  0.36  0.00  0.00  0.26  0.00
  YS02001757CaochengTiaoxuchi    1.00   0.00  0.06  0.00  0.94  0.00  0.00  0.00  0.00  0.00
  WSF200WS02003060        1.00   0.00  0.02  0.00  0.46  0.52  0.00  0.00  0.18  0.00
  1                       1.00   0.00  0.00  0.00  0.00  1.00  0.00  0.00  0.39  0.00
  2                       1.00   0.66  0.00  0.00  0.00  0.34  0.00  0.00  0.07  0.00
  3                       1.00   0.16  0.00  0.00  0.00  0.84  0.00  0.00  0.06  0.00
  4                       1.00   1.00  0.00  0.00  0.00  0.00  0.00  0.00  0.00  0.00
  
  
  *************************
  Conduit Surcharge Summary
  *************************
  
  ----------------------------------------------------------------------------
                                                           Hours        Hours 
                         --------- Hours Full --------   Above Full   Capacity
  Conduit                Both Ends  Upstream  Dnstream   Normal Flow   Limited
  ----------------------------------------------------------------------------
  WS02006229WS02006228        1.99      2.21      1.99      5.42         1.99
  WS02006256WS02006235        5.98      5.98      7.31      3.22         0.01
  WS02006252WS02006251        0.55      0.55      1.53      1.28         0.01
  WS02006251WS02006249        0.01      0.01      0.01      0.57         0.01
  WS02006249WS02006248        0.01      0.01      0.01      5.18         0.01
  WS02006247WS02006245        0.01      0.01      0.01      5.44         0.01
  WS02006243WS02006242        0.15      0.15      1.06      0.01         0.01
  WS02006242WS02006240        0.65      0.65      1.38      1.67         0.01
  WS02006240WS02006239        0.72      0.72      0.81      0.20         0.01
  WS02006239WS02006238        1.32      1.32      1.41      0.26         0.02
  WS02006238WS02006235        1.33      1.33      1.60      0.01         0.01
  WS02006235WS02006234        0.76      0.76      1.17      6.01         0.01
  WS02006234WS02006232        0.92      0.92      1.85      0.01         0.01
  WS02006232WS02006231        0.57      0.57      1.85      0.01         0.01
  WS02006231WS02006230        0.50      0.50      0.59      5.99         0.01
  WS02006230WS02006229        3.14      5.21      3.14      6.12         3.14
  WS02006228WS02006109        2.11      2.60      2.11      5.83         2.11
  WS02006112WS02006115        0.01      0.01      1.20      0.01         0.01
  WS02006111WS02006112        0.01      0.01      5.49      0.01         0.01
  WS02006110WS02006113        0.01      0.01      2.45      0.01         0.01
  WS02006109WS02006110        0.80      0.80      2.60      0.81         0.01
  WS02004406WS02004407        0.01      0.01      0.39      0.01         0.01
  WS02004405WS02004406        0.39      0.48      0.39      1.08         0.39
  WS02004404WS02004405        0.48      0.54      0.48      6.00         0.48
  WS02004403WS02004404        0.01      0.01      0.54      0.01         0.01
  WS02003072WS02003073        0.01      0.01      0.01      5.44         0.01
  HS02004480HS02004478        0.01      0.01      0.01      0.25         0.01
  YS02001759YS02001757        5.66      5.66      5.74      0.01         0.01
  YS02001762YS02001759        5.64      5.64      5.66      0.01         0.01
  YS02001765YS02001762        5.61      5.61      5.64      0.01         0.01
  YS02001770YS02001767        5.58      5.58      5.59      0.29         0.82
  YS02001774YS02001770        5.57      5.57      5.63      0.01         0.01
  YS02001779YS02001774        5.42      5.42      5.63      0.01         0.01
  YS02001649YS02001757        5.64      5.64      5.74      0.01         0.01
  YS02001767YS02001765        5.59      5.59      5.61      0.01         0.01
  YS02006561YS02001783        0.66      0.66      1.30      0.01         0.01
  YS02001783YS02001784        1.30      1.30      1.33      1.09         1.03
  YS02001784YS02001785        1.30      1.33      1.30      2.03         1.30
  YS02001788YS02001790        1.28      1.28      2.17      0.01         0.01
  YS02001790YS02001791        2.17      2.17      2.21      0.49         0.49
  YS02001791YS02001793        2.21      2.21      2.30      0.01         0.01
  YS02001910YS02001907        1.00      1.00      1.48      0.01         0.01
  YS02001786YS02001788        1.28      1.30      1.28      1.68         1.28
  YS02001915YS02001910        0.78      0.78      1.00      0.01         0.01
  YS02001918YS02001915        0.53      0.53      0.78      0.01         0.01
  YS02001923YS02001920        0.29      0.29      0.56      0.01         0.01
  YS02001920YS02001918        0.53      0.53      0.56      0.01         0.01
  YS02001629YS02163301        5.57      5.57      5.58      0.01         0.01
  YS02001619YS02001622        5.24      5.24      5.28      0.01         0.01
  YS02001622YS02001625        5.28      5.28      5.54      0.01         0.01
  YS02001625YS02001629        5.26      5.26      5.54      0.01         0.01
  YS02163301YS02001633        5.58      5.58      5.61      0.01         0.01
  YS02163601YS02164001        5.61      5.61      5.64      0.01         0.01
  YS02164001YS02001641        5.61      5.61      5.62      0.01         0.02
  YS02001641YS02001644        5.62      5.62      5.62      1.21         1.38
  YS02001647YS02001649        5.51      5.51      5.64      0.01         0.01
  YS02006553YS02006556        1.20      1.20      1.55      0.01         0.01
  YS02006556YS02006558        1.36      1.36      1.62      0.01         0.01
  YS02001907YS02006553        2.09      2.09      2.30      0.01         0.01
  YS02006558YS02006561        0.89      1.17      0.89      1.94         0.89
  YS02001633YS02163601        5.60      5.60      5.64      0.01         0.01
  YS02001644YS02001647        5.51      5.51      5.62      0.01         0.01
  YS02001745YS02001748        0.01      0.01      5.08      0.01         0.01
  YS02001748YS02001751        5.13      5.13      5.25      0.01         0.01
  YS02001751YS02001754        5.25      5.25      5.44      0.01         0.01
  YS02001754YS02001757        5.50      5.50      5.74      0.01         0.01
  YS02001882YS02001884        0.80      0.80      0.83      0.01         0.01
  YS02001884YS02001887        0.89      0.89      0.92      0.01         0.01
  YS02001890YS02001895        0.77      0.77      1.02      0.01         0.01
  YS02001895YS02001898        0.75      0.75      0.77      0.01         0.01
  YS02001898YS02001901        0.77      0.77      0.88      0.01         0.01
  YS02001901YS02001904        0.86      0.86      0.88      0.01         0.01
  YS02001904YS02001907        0.86      0.86      1.57      0.01         0.01
  YS02001887YS02001890        0.95      0.95      0.98      0.01         0.01
  YS02001652YS02001649        5.53      5.53      5.64      0.01         0.01
  YS02001655YS02001652        5.27      5.27      5.49      0.01         0.01
  YS02001658YS02001655        5.11      5.11      5.26      0.01         0.01
  YS02001661YS02001658        0.22      0.22      5.11      0.01         0.01
  YS02001664YS02001661        0.01      0.01      1.11      0.01         0.01
  YS02001793JiankangQianchi        2.28      2.28      3.38      0.01         0.01
  YS02001757CaochengTiaoxuchi        4.93      4.93      5.74      0.01         0.01
  3                           0.01      0.01      0.01      0.01         0.01
  
  
  ***************
  Pumping Summary
  ***************
  
  ---------------------------------------------------------------------------------------------------------
                                                  Min       Avg       Max     Total     Power    % Time Off
                        Percent   Number of      Flow      Flow      Flow    Volume     Usage    Pump Curve
  Pump                 Utilized   Start-Ups       LPS       LPS       LPS  10^6 ltr     Kw-hr    Low   High
  ---------------------------------------------------------------------------------------------------------
  CC-Pump-1               48.15           8      0.00    128.49    200.00     1.753      1.90    0.0    2.8
  CC-Pump-2               67.31           3      0.00    153.92    200.00     2.893      3.47    0.0   10.6
  JK-Pump-1               74.47           7      0.00    182.93    300.00     2.987     33.06    0.0    0.0
  JK-Pump-2               80.85           7      0.00    171.50    300.00     3.024     33.90    0.0    0.0
  XR-Pump-1               85.09           7      0.00     67.11     95.00     1.710     19.89    0.0    0.0
  XR-Pump-2               87.22           9      0.00     66.93     95.00     1.710     17.49    0.0    0.0
  XR-Pump-3               72.33           7      0.00     65.30     95.00     1.340     16.09    0.0    0.0
  XR-Pump-4               72.32           7      0.00     60.27     95.00     1.340     18.10    0.0    0.0
  

  Analysis begun on:  Wed Dec 22 17:38:20 2021
  Analysis ended on:  Wed Dec 22 17:38:24 2021
  Total elapsed time: 00:00:04