
  EPA STORM WATER MANAGEMENT MODEL - VERSION 5.1 (Build 5.3.0.dev0)
  --------------------------------------------------------------

  WARNING 04: minimum elevation drop used for Conduit WS02004404WS02004405
  WARNING 03: negative offset ignored for Link YS02001904YS02001907
  
  *********************************************************
  NOTE: The summary statistics displayed in this report are
  based on results found at every computational time step,  
  not just on results from each reporting time step.
  *********************************************************
  
  ****************
  Analysis Options
  ****************
  Flow Units ............... LPS
  Process Models:
    Rainfall/Runoff ........ YES
    RDII ................... NO
    Snowmelt ............... NO
    Groundwater ............ NO
    Flow Routing ........... YES
    Ponding Allowed ........ NO
    Water Quality .......... NO
  Infiltration Method ...... HORTON
  Flow Routing Method ...... DYNWAVE
  Surcharge Method ......... EXTRAN
  Starting Date ............ 08/28/2015 08:00:00
  Ending Date .............. 08/28/2015 15:50:00
  Antecedent Dry Days ...... 8.0
  Report Time Step ......... 00:01:00
  Wet Time Step ............ 00:01:00
  Dry Time Step ............ 00:01:00
  Routing Time Step ........ 5.00 sec
  Variable Time Step ....... YES
  Maximum Trials ........... 8
  Number of Threads ........ 4
  Head Tolerance ........... 0.001500 m
  
  
  **************************        Volume         Depth
  Runoff Quantity Continuity     hectare-m            mm
  **************************     ---------       -------
  Total Precipitation ......         5.556        12.164
  Evaporation Loss .........         0.000         0.000
  Infiltration Loss ........         1.427         3.124
  Surface Runoff ...........         3.072         6.726
  Final Storage ............         1.058         2.316
  Continuity Error (%) .....        -0.016
  
  
  **************************        Volume        Volume
  Flow Routing Continuity        hectare-m      10^6 ltr
  **************************     ---------     ---------
  Dry Weather Inflow .......         0.616         6.165
  Wet Weather Inflow .......         3.071        30.709
  Groundwater Inflow .......         0.000         0.000
  RDII Inflow ..............         0.000         0.000
  External Inflow ..........         0.102         1.024
  External Outflow .........         2.142        21.420
  Flooding Loss ............         1.172        11.723
  Evaporation Loss .........         0.000         0.000
  Exfiltration Loss ........         0.000         0.000
  Initial Stored Volume ....         0.076         0.761
  Final Stored Volume ......         0.642         6.422
  Continuity Error (%) .....        -2.349
  
  
  *************************
  Highest Continuity Errors
  *************************
  Node HS02004842 (16.24%)
  Node YS02001884 (12.27%)
  Node JK-storage (-10.09%)
  Node YS02001774 (3.60%)
  Node YSB1171 (3.12%)
  
  
  ***************************
  Time-Step Critical Elements
  ***************************
  Link WS02006252WS02006251 (48.46%)
  Link 3 (43.17%)
  Link WS02006238WS02006235 (2.98%)
  Link WS02006280WS02006229 (1.18%)
  
  
  ********************************
  Highest Flow Instability Indexes
  ********************************
  Link YS02001619YS02001622 (38)
  Link YS02163301YS02001633 (37)
  Link YS02001629YS02163301 (37)
  Link YS02163601YS02164001 (37)
  Link YS02164001YS02001641 (34)
  
  
  *************************
  Routing Time Step Summary
  *************************
  Minimum Time Step           :     0.30 sec
  Average Time Step           :     0.74 sec
  Maximum Time Step           :     5.00 sec
  Percent in Steady State     :    -0.00
  Average Iterations per Step :     4.46
  Percent Not Converging      :    20.37
  
  
  ***************************
  Subcatchment Runoff Summary
  ***************************
  
  ------------------------------------------------------------------------------------------------------------------------------
                            Total      Total      Total      Total     Imperv       Perv      Total       Total     Peak  Runoff
                           Precip      Runon       Evap      Infil     Runoff     Runoff     Runoff      Runoff   Runoff   Coeff
  Subcatchment                 mm         mm         mm         mm         mm         mm         mm    10^6 ltr      LPS
  ------------------------------------------------------------------------------------------------------------------------------
  sub0                      12.16       0.00       0.00       0.85      10.05       0.00      10.05        0.01     1.91   0.826
  sub1                      12.16       0.00       0.00       1.34       9.56       0.00       9.56        0.06    14.15   0.786
  sub2                      12.16       0.00       0.00       4.50       6.75       0.00       6.75        0.06    13.75   0.555
  sub3                      12.16       0.00       0.00       4.50       6.71       0.00       6.71        0.15    32.07   0.552
  sub4                      12.16       0.00       0.00       1.34       9.40       0.00       9.40        0.20    40.20   0.773
  sub5                      12.16       0.00       0.00       0.85       9.99       0.00       9.99        0.11    25.19   0.822
  sub7                      12.16       0.00       0.00       1.09       9.81       0.00       9.81        0.03     7.55   0.807
  sub8                      12.16       0.00       0.00       1.09       9.80       0.00       9.80        0.06    14.17   0.806
  sub9                      12.16       0.00       0.00       1.09       9.80       0.00       9.80        0.05    10.64   0.806
  sub10                     12.16       0.00       0.00       0.97       9.89       0.00       9.89        0.11    24.40   0.813
  sub11                     12.16       0.00       0.00       0.97       9.91       0.00       9.91        0.12    26.15   0.815
  sub12                     12.16       0.00       0.00       1.58       9.39       0.00       9.39        0.08    19.06   0.772
  sub14                     12.16       0.00       0.00       1.09       9.80       0.00       9.80        0.09    21.02   0.805
  sub15                     12.16       0.00       0.00       3.65       7.53       0.00       7.53        0.13    29.11   0.619
  sub16                     12.16       0.00       0.00       4.01       7.23       0.00       7.23        0.08    17.47   0.594
  sub17                     12.16       0.00       0.00       3.89       7.34       0.00       7.34        0.06    14.47   0.603
  sub22                     12.16       0.00       0.00       5.23       6.14       0.00       6.14        0.39    88.27   0.505
  sub23                     12.16       0.00       0.00       4.50       6.79       0.00       6.79        0.32    73.89   0.558
  sub60                     12.16       0.00       0.00       1.46       7.71       0.00       7.71        2.34   297.17   0.634
  sub61                     12.16       0.00       0.00       2.07       7.87       0.00       7.87        2.43   359.80   0.647
  sub62                     12.16       0.00       0.00       0.97       8.55       0.00       8.55        2.63   372.87   0.703
  sub63                     12.16       0.00       0.00       3.53       6.89       0.00       6.89        2.09   327.80   0.567
  sub64                     12.16       0.00       0.00       1.82       7.40       0.00       7.40        2.25   282.66   0.608
  sub65                     12.16       0.00       0.00       1.58       7.52       0.00       7.52        2.31   287.20   0.618
  sub66                     12.16       0.00       0.00       3.53       6.36       0.00       6.36        1.95   257.27   0.523
  sub67                     12.16       0.00       0.00       0.97       9.05       0.00       9.05        2.79   452.90   0.744
  sub68                     12.16       0.00       0.00       1.70       8.28       0.00       8.28        2.55   391.99   0.681
  sub69                     12.16       0.00       0.00       1.82       8.61       0.00       8.61        2.01   355.79   0.708
  sub70                     12.16       8.79       0.00       7.03      11.43       0.10      11.53        2.64   335.00   0.550
  sub71                     12.16       0.00       0.00       0.97       8.31       0.00       8.31        1.96   263.63   0.683
  sub72                     12.16       0.00       0.00       0.85       6.56       0.00       6.56        1.34   129.40   0.540
  sub73                     12.16      11.23       0.00       7.88      12.47       0.08      12.54        2.95   300.52   0.536
  sub74                     12.16       0.00       0.00       9.12       2.57       0.00       2.57        1.03   189.59   0.211
  
  
  ******************
  Node Depth Summary
  ******************
  
  ---------------------------------------------------------------------------------
                                 Average  Maximum  Maximum  Time of Max    Reported
                                   Depth    Depth      HGL   Occurrence   Max Depth
  Node                 Type       Meters   Meters   Meters  days hr:min      Meters
  ---------------------------------------------------------------------------------
  WS02001211           JUNCTION     0.65     0.77     5.61     0  04:20        0.77
  WS02001212           JUNCTION     0.38     0.48     5.54     0  04:21        0.48
  WS02001213           JUNCTION     0.62     0.72     5.48     0  04:21        0.72
  WS02003069           JUNCTION     0.45     0.57     5.15     0  02:43        0.57
  WS02003072           JUNCTION     0.52     0.63     5.00     0  02:44        0.63
  WS02003073           JUNCTION     0.31     0.38     4.45     0  02:44        0.38
  WS02003060           JUNCTION     0.40     0.50     5.43     0  02:42        0.50
  WS02003066           JUNCTION     0.25     0.33     5.88     0  03:05        0.33
  WS02003059           JUNCTION     0.68     0.77     5.46     0  02:42        0.77
  WS02003067           JUNCTION     0.61     0.74     6.06     0  03:03        0.74
  WS02004401           JUNCTION     0.72     0.97     6.97     0  03:01        0.97
  WS02004402           JUNCTION     0.75     0.99     6.95     0  03:01        0.99
  WS02004403           JUNCTION     0.77     1.00     6.93     0  03:02        1.00
  WS02004404           JUNCTION     0.85     1.06     6.91     0  03:02        1.06
  WS02004406           JUNCTION     0.85     1.03     6.86     0  03:02        1.03
  WS02004409           JUNCTION     0.54     0.75     6.52     0  03:05        0.75
  WS02004410           JUNCTION     0.56     0.76     6.48     0  03:05        0.76
  WS02004411           JUNCTION     0.57     0.76     6.44     0  03:05        0.76
  WS02004412           JUNCTION     0.58     0.76     6.40     0  03:05        0.76
  WS02004413           JUNCTION     0.74     0.91     6.38     0  03:06        0.91
  WS02004405           JUNCTION     0.84     1.04     6.89     0  03:02        1.04
  WS02006109           JUNCTION     0.81     1.11     7.72     0  03:02        1.09
  WS02006110           JUNCTION     0.79     1.02     7.61     0  02:52        1.01
  WS02006111           JUNCTION     0.24     0.35     7.06     0  03:02        0.35
  WS02006112           JUNCTION     0.90     1.20     7.08     0  02:54        1.19
  WS02006113           JUNCTION     0.37     0.51     7.40     0  03:03        0.51
  WS02006115           JUNCTION     0.62     0.89     7.03     0  03:04        0.89
  WS02006116           JUNCTION     0.70     0.96     7.00     0  03:01        0.96
  WS02006230           JUNCTION     0.81     1.17     7.92     0  03:02        1.17
  WS02006231           JUNCTION     0.54     0.83     7.95     0  02:49        0.82
  WS02006232           JUNCTION     0.68     0.96     8.00     0  02:49        0.94
  WS02006234           JUNCTION     0.61     0.88     8.04     0  02:49        0.87
  WS02006235           JUNCTION     0.64     0.91     8.07     0  02:48        0.90
  WS02006238           JUNCTION     0.66     0.94     8.08     0  02:49        0.92
  WS02006240           JUNCTION     0.56     0.85     8.14     0  02:48        0.82
  WS02006242           JUNCTION     0.62     0.89     8.16     0  02:48        0.88
  WS02006243           JUNCTION     0.50     0.77     8.19     0  02:49        0.76
  WS02006245           JUNCTION     0.47     0.73     8.21     0  02:49        0.72
  WS02006247           JUNCTION     0.49     0.80     8.30     0  02:47        0.74
  WS02006248           JUNCTION     0.43     0.65     8.24     0  02:50        0.65
  WS02006249           JUNCTION     0.46     0.66     8.26     0  02:50        0.66
  WS02006239           JUNCTION     0.62     0.90     8.11     0  02:48        0.88
  WS02006251           JUNCTION     0.45     0.71     8.38     0  02:50        0.70
  WS02006252           JUNCTION     0.39     0.59     8.83     0  03:09        0.59
  WS02006253           JUNCTION     0.47     0.74     8.38     0  02:50        0.73
  WS02006256           JUNCTION     1.10     1.22     8.15     0  02:50        1.22
  WS02004138           JUNCTION     0.14     0.19     7.44     0  00:20        0.19
  WS02004407           JUNCTION     0.24     0.33     6.64     0  03:02        0.33
  WS02006228           JUNCTION     0.82     1.17     7.82     0  03:02        1.16
  WS02006229           JUNCTION     0.80     1.18     7.87     0  03:02        1.18
  WS02006280           JUNCTION     0.07     0.19     8.46     0  03:02        0.19
  WS02006284           JUNCTION     0.37     0.55     8.95     0  03:02        0.55
  WS02006287           JUNCTION     0.11     0.28     9.24     0  03:01        0.28
  WSF200               JUNCTION     0.24     0.35     5.58     0  03:05        0.35
  HS02004901           JUNCTION     0.13     0.28    10.10     0  03:01        0.28
  HS02004881           JUNCTION     0.01     0.04     9.07     0  03:01        0.04
  HS02004876           JUNCTION     0.05     0.12     9.15     0  03:01        0.12
  HS02004870           JUNCTION     0.02     0.06     9.35     0  03:01        0.06
  HS02004862           JUNCTION     0.02     0.07     9.46     0  03:01        0.07
  HS02004856           JUNCTION     0.08     0.13     9.55     0  03:01        0.13
  HS02004852           JUNCTION     0.01     0.05     9.56     0  03:01        0.05
  HS02004848           JUNCTION     0.01     0.05     9.65     0  03:01        0.05
  HS02004842           JUNCTION     0.33     0.38     9.65     0  03:01        0.38
  HS02004837           JUNCTION     0.03     0.07     9.65     0  03:01        0.07
  HS02004830           JUNCTION     0.04     0.08     9.55     0  03:01        0.08
  HS02004824           JUNCTION     0.03     0.06     9.46     0  03:01        0.06
  HS02004817           JUNCTION     0.45     0.60     9.44     0  03:01        0.60
  HS02004807           JUNCTION     0.13     0.27     9.44     0  03:01        0.27
  HS02004802           JUNCTION     0.17     0.30     9.43     0  03:01        0.30
  HS02004799           JUNCTION     0.13     0.33     9.54     0  03:01        0.33
  HS02004792           JUNCTION     0.04     0.14     9.66     0  03:01        0.14
  HS02004788           JUNCTION     0.03     0.10    10.00     0  03:01        0.10
  HS02004785           JUNCTION     0.05     0.17    10.07     0  03:01        0.17
  HS02004777           JUNCTION     0.15     0.30    10.10     0  03:01        0.30
  HS02004770           JUNCTION     0.12     0.27    10.10     0  03:01        0.27
  HS02004480           JUNCTION     0.09     0.26     9.50     0  03:01        0.26
  HS02004479           JUNCTION     0.13     0.30     9.50     0  03:01        0.30
  HS02004478           JUNCTION     0.07     0.18     9.41     0  03:01        0.18
  YS02001745           JUNCTION     0.69     0.87     8.39     0  03:22        0.87
  YS02001748           JUNCTION     1.08     2.27     9.35     0  02:41        1.31
  YS02001751           JUNCTION     1.26     2.20     9.08     0  02:43        1.52
  YS02001754           JUNCTION     1.52     2.20     8.80     0  02:44        1.80
  YS02001762           JUNCTION     1.72     2.09     8.49     0  02:43        2.02
  YS02001765           JUNCTION     1.67     2.02     8.47     0  02:43        1.96
  YS02001767           JUNCTION     1.63     1.98     8.47     0  02:43        1.92
  YS02001770           JUNCTION     1.63     1.95     8.44     0  02:43        1.90
  YS02001774           JUNCTION     1.70     2.01     8.44     0  02:44        1.96
  YS02001779           JUNCTION     1.45     1.68     8.37     0  02:41        1.68
  YS02001882           JUNCTION     0.54     1.62     8.33     0  02:53        1.60
  YS02001884           JUNCTION     0.64     1.71     8.33     0  02:53        1.70
  YS02001759           JUNCTION     1.75     2.12     8.49     0  02:43        2.06
  YS02001887           JUNCTION     0.71     1.79     8.33     0  02:53        1.78
  YS02001890           JUNCTION     0.74     1.81     8.32     0  02:53        1.80
  YS02001898           JUNCTION     0.51     1.56     8.29     0  02:53        1.55
  YS02001901           JUNCTION     0.63     1.67     8.28     0  03:00        1.66
  YS02001904           JUNCTION     0.61     1.63     8.26     0  02:53        1.63
  YS02001907           JUNCTION     0.94     1.96     8.25     0  02:53        1.96
  YS02001910           JUNCTION     0.73     1.78     8.29     0  02:54        1.77
  YS02001915           JUNCTION     0.52     1.59     8.31     0  02:54        1.58
  YS02001918           JUNCTION     0.27     1.27     8.34     0  02:54        1.27
  YS02001619           JUNCTION     1.23     1.61     8.54     0  02:40        1.48
  YS02001629           JUNCTION     1.59     1.85     8.40     0  02:40        1.84
  YS02001641           JUNCTION     1.68     1.93     8.37     0  02:55        1.93
  YS02001644           JUNCTION     1.69     1.92     8.35     0  02:43        1.92
  YS02001652           JUNCTION     1.53     2.16     8.76     0  02:56        2.11
  YS02001655           JUNCTION     1.29     2.20     9.05     0  02:57        2.06
  YS02001920           JUNCTION     0.37     1.35     8.36     0  02:54        1.34
  YS02001923           JUNCTION     0.21     1.11     8.37     0  02:54        1.11
  YS02001926           JUNCTION     0.26     0.93     8.37     0  02:54        0.89
  YS02001929           JUNCTION     0.15     0.70     8.40     0  02:54        0.63
  YS02001658           JUNCTION     1.02     2.30     9.44     0  02:57        1.83
  YS02001661           JUNCTION     0.80     2.46     9.86     0  02:57        1.50
  YS02001664           JUNCTION     0.35     0.57     8.49     0  02:55        0.57
  YS02001622           JUNCTION     1.25     1.62     8.52     0  02:40        1.50
  YS02001633           JUNCTION     1.68     1.95     8.40     0  02:51        1.94
  YS02001649           JUNCTION     1.73     2.05     8.44     0  02:55        2.05
  YS02001757           JUNCTION     1.85     2.21     8.47     0  02:43        2.16
  YS02001895           JUNCTION     0.50     1.56     8.31     0  02:53        1.55
  YS02001625           JUNCTION     1.54     1.78     8.38     0  02:36        1.78
  YS02163301           JUNCTION     1.62     1.89     8.40     0  02:42        1.87
  YS02163601           JUNCTION     1.73     1.99     8.38     0  02:57        1.98
  YS02164001           JUNCTION     1.67     1.92     8.38     0  02:51        1.91
  YS02001647           JUNCTION     1.52     1.81     8.42     0  02:57        1.79
  YSB1154              JUNCTION     0.27     0.45     9.51     0  03:01        0.45
  YSB6556              JUNCTION     0.16     0.34     9.51     0  03:01        0.34
  YSB1174              JUNCTION     0.22     0.40     9.51     0  03:01        0.40
  YSB1171              JUNCTION     0.42     0.60     9.51     0  03:01        0.60
  YS02006553           JUNCTION     0.94     1.97     8.25     0  02:58        1.96
  YS02006561           JUNCTION     0.31     1.09     7.75     0  02:59        1.07
  YS02006556           JUNCTION     0.91     1.92     8.23     0  03:00        1.91
  YS02006558           JUNCTION     0.95     1.96     8.23     0  03:00        1.95
  YS02001783           JUNCTION     0.53     2.40     8.54     0  02:42        1.46
  YS02001784           JUNCTION     0.55     2.29     8.36     0  02:42        1.40
  YS02001786           JUNCTION     0.48     2.07     8.10     0  02:42        1.25
  YS02001788           JUNCTION     0.41     1.76     7.73     0  02:42        1.12
  YS02001790           JUNCTION     0.52     1.96     7.60     0  02:41        1.29
  YS02001791           JUNCTION     0.48     1.64     7.11     0  02:42        1.27
  YS02001793           JUNCTION     0.66     1.97     6.80     0  02:42        1.80
  WS02004139           JUNCTION     0.59     0.72     5.63     0  04:20        0.71
  WSC                  OUTFALL      0.31     0.38     1.05     0  02:45        0.38
  3                    OUTFALL      0.12     0.21     6.21     0  02:50        0.21
  4                    OUTFALL      0.03     0.16     7.16     0  02:50        0.16
  5                    OUTFALL      0.00     0.00     5.00     0  00:00        0.00
  JK-storage           STORAGE      2.47     5.80     6.60     0  02:42        5.80
  CC-storage           STORAGE      1.07     1.37     8.37     0  05:51        1.37
  XR-storage           STORAGE      6.98     7.72     5.72     0  02:48        7.72
  
  
  *******************
  Node Inflow Summary
  *******************
  
  -------------------------------------------------------------------------------------------------
                                  Maximum  Maximum                  Lateral       Total        Flow
                                  Lateral    Total  Time of Max      Inflow      Inflow     Balance
                                   Inflow   Inflow   Occurrence      Volume      Volume       Error
  Node                 Type           LPS      LPS  days hr:min    10^6 ltr    10^6 ltr     Percent
  -------------------------------------------------------------------------------------------------
  WS02001211           JUNCTION      7.35   380.81     0  04:20       0.207        6.59       0.575
  WS02001212           JUNCTION      0.00   376.28     0  04:20           0        6.55       0.298
  WS02001213           JUNCTION      0.00   374.82     0  04:21           0        6.53       0.390
  WS02003069           JUNCTION      0.32   898.73     0  02:43     0.00902        15.7       0.214
  WS02003072           JUNCTION      0.00   898.29     0  02:43           0        15.6       0.257
  WS02003073           JUNCTION      1.82   899.86     0  02:44      0.0514        15.6       0.296
  WS02003060           JUNCTION     16.53   898.38     0  02:42       0.466        15.7       0.202
  WS02003066           JUNCTION      0.00   662.30     0  03:06           0        8.77       0.056
  WS02003059           JUNCTION      0.00   374.42     0  04:21           0        6.51       0.622
  WS02003067           JUNCTION      0.00   662.28     0  03:06           0        8.78       0.115
  WS02004401           JUNCTION      0.00   664.53     0  03:01           0        9.03       0.254
  WS02004402           JUNCTION      0.00   664.17     0  03:01           0        9.01       0.238
  WS02004403           JUNCTION      0.00   663.28     0  03:01           0        8.98       0.215
  WS02004404           JUNCTION      0.16   662.97     0  03:02     0.00457        8.97       0.161
  WS02004406           JUNCTION      0.00   663.09     0  03:02           0        8.94       0.391
  WS02004409           JUNCTION      0.00   662.97     0  03:02           0        8.89       0.208
  WS02004410           JUNCTION      0.00   662.75     0  03:02           0        8.87       0.233
  WS02004411           JUNCTION      0.00   662.47     0  03:05           0        8.85       0.237
  WS02004412           JUNCTION      0.00   662.45     0  03:03           0        8.83       0.253
  WS02004413           JUNCTION      0.00   662.31     0  03:06           0        8.81       0.369
  WS02004405           JUNCTION      0.04   663.04     0  03:02     0.00107        8.96       0.239
  WS02006109           JUNCTION      1.23   654.88     0  03:02      0.0347         9.1       0.242
  WS02006110           JUNCTION      0.00   654.95     0  03:02           0        9.08       0.227
  WS02006111           JUNCTION      0.00   688.59     0  03:03           0        9.04       0.053
  WS02006112           JUNCTION     14.47   667.54     0  02:55      0.0629         9.1       0.339
  WS02006113           JUNCTION      0.00   656.11     0  03:02           0        9.05       0.115
  WS02006115           JUNCTION      0.00   668.25     0  02:53           0        9.07       0.242
  WS02006116           JUNCTION      0.00   666.89     0  03:01           0        9.05       0.229
  WS02006230           JUNCTION     10.28   398.49     0  04:02        0.29        7.21       0.171
  WS02006231           JUNCTION      0.00   389.17     0  04:02           0        6.94       0.205
  WS02006232           JUNCTION      0.00   389.20     0  04:01           0        6.96       0.242
  WS02006234           JUNCTION      0.00   389.89     0  04:01           0        6.96       0.126
  WS02006235           JUNCTION      0.00   389.78     0  04:01           0        7.01       0.162
  WS02006238           JUNCTION      0.00   308.49     0  06:41           0        4.88       0.167
  WS02006240           JUNCTION      0.00   313.55     0  07:31           0        4.88       0.257
  WS02006242           JUNCTION      0.00   321.27     0  05:01           0        4.88       0.311
  WS02006243           JUNCTION      0.00   331.60     0  05:01           0        4.87      -0.075
  WS02006245           JUNCTION      0.00   340.52     0  02:10           0        4.88       0.213
  WS02006247           JUNCTION      0.00   351.18     0  02:10           0        4.88       0.151
  WS02006248           JUNCTION      0.00   357.68     0  02:10           0        4.89       0.076
  WS02006249           JUNCTION      0.00   466.82     0  02:50           0        5.48       0.203
  WS02006239           JUNCTION      0.00   309.71     0  06:41           0        4.88       0.254
  WS02006251           JUNCTION      0.08   467.48     0  02:50     0.00217        5.52       0.163
  WS02006252           JUNCTION      0.00   400.00     0  04:00           0        5.13       0.008
  WS02006253           JUNCTION      1.91    81.00     0  03:01     0.00814       0.395       0.973
  WS02006256           JUNCTION      0.00   600.00     0  04:00           0         7.4       0.043
  WS02004138           JUNCTION      0.00   379.98     0  04:20           0        6.41       0.070
  WS02004407           JUNCTION      0.00   663.30     0  03:02           0         8.9       0.092
  WS02006228           JUNCTION      0.00   653.75     0  03:02           0        9.08       0.170
  WS02006229           JUNCTION      0.00   652.70     0  03:02           0        9.09       0.135
  WS02006280           JUNCTION      0.00   375.54     0  03:02           0        1.89       0.004
  WS02006284           JUNCTION      0.10   375.54     0  03:02      0.0027        1.89       0.064
  WS02006287           JUNCTION      0.00   375.27     0  03:01           0        1.89       0.037
  WSF200               JUNCTION      0.00   662.32     0  03:06           0        8.76       0.057
  HS02004901           JUNCTION     17.47    17.47     0  03:01      0.0757      0.0759       2.380
  HS02004881           JUNCTION      7.55    79.19     0  03:01      0.0331       0.357       0.092
  HS02004876           JUNCTION     14.15    72.10     0  03:01      0.0636       0.324       0.171
  HS02004870           JUNCTION     14.17    58.27     0  03:01      0.0626       0.261       0.043
  HS02004862           JUNCTION     13.95    44.46     0  03:01      0.0685       0.198       0.089
  HS02004856           JUNCTION     10.64    30.79     0  03:01      0.0471       0.131       1.114
  HS02004852           JUNCTION      0.00    20.44     0  03:01           0       0.084       0.069
  HS02004848           JUNCTION     32.07    32.07     0  03:01       0.151       0.151       0.033
  HS02004842           JUNCTION      0.00    11.42     0  03:01           0      0.0801      19.389
  HS02004837           JUNCTION     30.75    41.91     0  03:01       0.288       0.355       0.230
  HS02004830           JUNCTION      0.15    41.84     0  03:01     0.00423       0.346       0.359
  HS02004824           JUNCTION     40.25    81.79     0  03:01       0.197       0.542       0.100
  HS02004817           JUNCTION      0.60    82.18     0  03:01      0.0169       0.558       3.079
  HS02004807           JUNCTION     26.15   107.24     0  03:01       0.115       0.657       0.656
  HS02004802           JUNCTION      0.00   106.49     0  03:01           0       0.653       0.618
  HS02004799           JUNCTION     21.02   227.51     0  03:01      0.0932        1.06       0.236
  HS02004792           JUNCTION     88.55   207.32     0  03:01       0.396       0.966       0.043
  HS02004788           JUNCTION     30.78   119.37     0  03:01       0.177       0.571       0.069
  HS02004785           JUNCTION      0.15    89.79     0  03:01     0.00423       0.396       0.125
  HS02004777           JUNCTION      0.03    90.24     0  03:01    0.000846       0.397       1.326
  HS02004770           JUNCTION     73.89    90.93     0  03:01       0.324       0.398       0.787
  HS02004480           JUNCTION      0.00   269.28     0  03:01           0        1.25       0.098
  HS02004479           JUNCTION      0.00    42.82     0  03:02           0       0.204       0.360
  HS02004478           JUNCTION      0.00   375.17     0  03:01           0        1.89       0.018
  YS02001745           JUNCTION    297.18   408.22     0  02:40        2.34        2.35       0.448
  YS02001748           JUNCTION      0.04   604.53     0  02:42     0.00127        2.34       0.967
  YS02001751           JUNCTION      0.01   308.37     0  03:01     0.00031         2.3       1.034
  YS02001754           JUNCTION      0.26   308.77     0  03:01     0.00733        2.29       1.091
  YS02001762           JUNCTION      0.00   344.36     0  02:56           0        1.91       1.109
  YS02001765           JUNCTION      0.00   344.46     0  02:56           0        1.91       1.280
  YS02001767           JUNCTION      0.54   344.35     0  02:56      0.0151        1.93       1.873
  YS02001770           JUNCTION    373.02   373.02     0  03:01        2.63        2.64       1.220
  YS02001774           JUNCTION      0.00   221.34     0  03:28           0       0.696       3.733
  YS02001779           JUNCTION      0.01   221.63     0  03:28    0.000141       0.665       2.355
  YS02001882           JUNCTION      0.00    24.85     0  02:45           0      0.0142      18.185
  YS02001884           JUNCTION      0.00    54.78     0  02:44           0      0.0495      13.990
  YS02001759           JUNCTION    359.84   677.57     0  02:56        2.43         4.3       0.533
  YS02001887           JUNCTION    453.35   453.35     0  03:01         2.8        2.83       0.299
  YS02001890           JUNCTION      0.00   453.60     0  03:00           0        2.79       0.328
  YS02001898           JUNCTION      0.00   453.58     0  03:01           0        2.77       0.122
  YS02001901           JUNCTION      0.00   453.70     0  03:01           0        2.77       0.247
  YS02001904           JUNCTION      0.00   453.70     0  03:01           0        2.77       0.226
  YS02001907           JUNCTION      0.00   881.09     0  02:59           0        6.12       0.399
  YS02001910           JUNCTION      0.00   462.03     0  02:55           0        3.37       0.350
  YS02001915           JUNCTION    263.65   461.90     0  02:55        1.96        3.39       0.176
  YS02001918           JUNCTION      0.00   224.41     0  02:55           0        1.44       0.128
  YS02001619           JUNCTION    257.27   257.27     0  03:01        1.95        1.95       0.630
  YS02001629           JUNCTION      0.00   208.65     0  02:50           0        1.64       1.791
  YS02001641           JUNCTION      0.00   442.09     0  02:50           0        3.85       0.546
  YS02001644           JUNCTION    282.70   938.75     0  03:26        2.25        7.88       0.332
  YS02001652           JUNCTION      0.00   373.24     0  03:01           0        2.04       1.148
  YS02001655           JUNCTION      0.15   373.34     0  03:01     0.00434        2.06       1.245
  YS02001920           JUNCTION      2.87   224.36     0  02:55      0.0809        1.43       0.207
  YS02001923           JUNCTION      0.04   239.97     0  02:55     0.00106        1.34       0.047
  YS02001926           JUNCTION      0.05   201.95     0  02:54     0.00147        1.34       0.250
  YS02001929           JUNCTION    129.40   129.40     0  03:01        1.34        1.34       0.040
  YS02001658           JUNCTION      0.00   560.66     0  02:40           0        2.08       1.084
  YS02001661           JUNCTION      0.00   697.05     0  02:55           0        2.78      -0.038
  YS02001664           JUNCTION    327.80   356.04     0  02:54        2.09        2.78       0.214
  YS02001622           JUNCTION      0.00   257.41     0  03:01           0        1.94       1.666
  YS02001633           JUNCTION    287.40   442.20     0  02:50        2.32        3.91       0.828
  YS02001649           JUNCTION      0.00   944.33     0  02:50           0        5.09       0.724
  YS02001757           JUNCTION      0.00  1793.02     0  02:52           0        9.75       0.952
  YS02001895           JUNCTION      0.00   453.68     0  03:01           0        2.78       0.175
  YS02001625           JUNCTION      0.00   257.42     0  03:01           0         1.9       2.060
  YS02163301           JUNCTION      0.00   208.69     0  02:50           0        1.61       1.497
  YS02163601           JUNCTION      0.11   442.30     0  02:50      0.0031        3.87       0.779
  YS02164001           JUNCTION      0.00   442.22     0  02:50           0        3.85       0.518
  YS02001647           JUNCTION      0.00   672.15     0  02:50           0        3.99       0.711
  YSB1154              JUNCTION     25.19    25.19     0  03:01       0.113       0.114       1.286
  YSB6556              JUNCTION      0.00    24.91     0  03:01           0       0.115       1.100
  YSB1174              JUNCTION     19.06    19.06     0  03:01      0.0821      0.0827       1.581
  YSB1171              JUNCTION      0.00    43.19     0  03:01           0       0.203       3.219
  YS02006553           JUNCTION      0.00   667.08     0  03:17           0         5.9       0.258
  YS02006561           JUNCTION      0.00   964.10     0  03:01           0        8.42       0.009
  YS02006556           JUNCTION      0.00   667.21     0  03:17           0         5.9       0.191
  YS02006558           JUNCTION    392.87   964.41     0  03:01        2.57        8.45       0.063
  YS02001783           JUNCTION      0.00   964.13     0  03:01           0        8.42       0.027
  YS02001784           JUNCTION      1.06   965.15     0  03:01      0.0299        8.45       0.044
  YS02001786           JUNCTION      0.06   965.15     0  03:01     0.00159        8.45       0.042
  YS02001788           JUNCTION      0.07   965.25     0  03:01       0.002        8.44       0.025
  YS02001790           JUNCTION      0.15   965.40     0  03:01     0.00437        8.45       0.028
  YS02001791           JUNCTION      0.00   965.37     0  03:01           0        8.44       0.014
  YS02001793           JUNCTION      0.00   965.49     0  03:01           0        8.44       0.006
  WS02004139           JUNCTION      0.32   379.68     0  00:20     0.00905        6.42       0.602
  WSC                  OUTFALL       0.00   899.46     0  02:45           0        15.6       0.000
  3                    OUTFALL       0.00   538.34     0  02:50           0        5.24       0.000
  4                    OUTFALL       0.00   227.22     0  02:50           0       0.582       0.000
  5                    OUTFALL       0.00     0.00     0  00:00           0           0       0.000 ltr
  JK-storage           STORAGE       0.00   965.49     0  03:00           0        8.59      -9.168
  CC-storage           STORAGE       0.00  1793.11     0  02:52           0        8.73       0.654
  XR-storage           STORAGE     690.11   690.11     0  03:01        9.61        10.2      -0.001
  
  
  **********************
  Node Surcharge Summary
  **********************
  
  Surcharging occurs when water rises above the top of the highest conduit.
  ---------------------------------------------------------------------
                                               Max. Height   Min. Depth
                                   Hours       Above Crown    Below Rim
  Node                 Type      Surcharged         Meters       Meters
  ---------------------------------------------------------------------
  WS02004404           JUNCTION        0.72          0.057        2.723
  WS02004406           JUNCTION        0.41          0.030        2.420
  WS02004405           JUNCTION        0.52          0.044        2.756
  WS02006109           JUNCTION        2.53          0.286        1.534
  WS02006110           JUNCTION        1.11          0.113        1.737
  WS02006112           JUNCTION        1.21          0.202        1.478
  WS02006230           JUNCTION        0.57          0.090        1.480
  WS02006231           JUNCTION        1.04          0.120        1.410
  WS02006232           JUNCTION        2.84          0.258        1.222
  WS02006234           JUNCTION        1.14          0.163        1.077
  WS02006235           JUNCTION        1.83          0.200        1.090
  WS02006238           JUNCTION        2.33          0.219        1.211
  WS02006240           JUNCTION        1.10          0.135        1.255
  WS02006242           JUNCTION        1.66          0.157        0.663
  WS02006243           JUNCTION        0.38          0.055        0.715
  WS02006245           JUNCTION        0.06          0.020        0.830
  WS02006247           JUNCTION        0.07          0.095        0.665
  WS02006239           JUNCTION        1.33          0.163        1.127
  WS02006252           JUNCTION        2.49          0.193        0.907
  WS02006228           JUNCTION        2.34          0.341        1.859
  YS02001748           JUNCTION        5.05          1.190        0.000
  YS02001751           JUNCTION        5.20          1.200        0.000
  YS02001754           JUNCTION        5.40          1.146        0.004
  YS02001762           JUNCTION        5.64          1.091        0.059
  YS02001765           JUNCTION        5.61          1.016        0.084
  YS02001767           JUNCTION        5.58          0.980        0.050
  YS02001770           JUNCTION        5.51          0.920        0.000
  YS02001774           JUNCTION        5.63          1.014        0.036
  YS02001779           JUNCTION        5.39          0.680        0.000
  YS02001882           JUNCTION        0.78          0.616        0.214
  YS02001884           JUNCTION        0.82          0.653        0.217
  YS02001759           JUNCTION        5.66          1.125        0.085
  YS02001887           JUNCTION        0.89          0.740        0.210
  YS02001890           JUNCTION        0.93          0.760        0.000
  YS02001898           JUNCTION        0.73          0.527        0.213
  YS02001901           JUNCTION        0.86          0.672        0.198
  YS02001904           JUNCTION        0.84          0.634        0.216
  YS02001907           JUNCTION        1.48          0.950        0.000
  YS02001910           JUNCTION        0.97          0.782        0.318
  YS02001915           JUNCTION        0.77          0.592        0.408
  YS02001918           JUNCTION        0.52          0.274        0.536
  YS02001619           JUNCTION        5.23          0.610        0.000
  YS02001629           JUNCTION        5.23          0.470        0.000
  YS02001641           JUNCTION        5.62          0.934        0.166
  YS02001644           JUNCTION        5.62          0.920        0.000
  YS02001652           JUNCTION        5.41          1.130        0.000
  YS02001655           JUNCTION        5.25          1.200        0.000
  YS02001920           JUNCTION        0.55          0.355        0.785
  YS02001658           JUNCTION        5.08          1.300        0.000
  YS02001661           JUNCTION        0.21          1.390        0.000
  YS02001622           JUNCTION        5.25          0.616        0.004
  YS02001633           JUNCTION        5.60          0.925        0.135
  YS02001649           JUNCTION        5.64          1.050        0.000
  YS02001757           JUNCTION        5.74          1.210        0.000
  YS02001895           JUNCTION        0.75          0.559        0.191
  YS02001625           JUNCTION        5.41          0.780        0.000
  YS02163301           JUNCTION        5.58          0.888        0.142
  YS02163601           JUNCTION        5.64          0.987        0.093
  YS02164001           JUNCTION        5.61          0.918        0.182
  YS02001647           JUNCTION        5.42          0.805        0.095
  YS02006553           JUNCTION        1.53          0.965        0.225
  YS02006561           JUNCTION        0.65          0.285        0.865
  YS02006556           JUNCTION        1.20          0.881        0.469
  YS02006558           JUNCTION        1.15          0.858        0.542
  YS02001783           JUNCTION        1.20          1.600        0.000
  YS02001784           JUNCTION        1.27          1.490        0.000
  YS02001786           JUNCTION        1.20          1.268        0.162
  YS02001788           JUNCTION        1.19          0.956        0.524
  YS02001790           JUNCTION        1.66          1.157        0.000
  YS02001791           JUNCTION        1.77          0.845        1.075
  YS02001793           JUNCTION        2.05          0.969        1.631
  
  
  *********************
  Node Flooding Summary
  *********************
  
  Flooding refers to all water that overflows a node, whether it ponds or not.
  --------------------------------------------------------------------------
                                                             Total   Maximum
                                 Maximum   Time of Max       Flood    Ponded
                        Hours       Rate    Occurrence      Volume     Depth
  Node                 Flooded       LPS   days hr:min    10^6 ltr    Meters
  --------------------------------------------------------------------------
  YS02001748              0.01    280.63      0  02:43       0.001     0.000
  YS02001751              0.01      3.28      0  02:43       0.000     0.000
  YS02001770              0.01      6.52      0  02:43       0.000     0.000
  YS02001779              2.46    221.33      0  03:28       0.645     0.000
  YS02001890              0.01      0.34      0  02:53       0.000     0.000
  YS02001907              0.38    301.15      0  02:59       0.207     0.000
  YS02001619              0.01     10.28      0  02:40       0.000     0.000
  YS02001629              0.01     30.47      0  02:40       0.000     0.000
  YS02001644              3.83    938.60      0  03:26       5.659     0.000
  YS02001652              0.01     23.91      0  03:11       0.000     0.000
  YS02001655              0.01     26.06      0  03:11       0.000     0.000
  YS02001658              0.01     13.35      0  03:09       0.000     0.000
  YS02001661              0.01    197.63      0  03:11       0.002     0.000
  YS02001649              0.09     54.80      0  03:11       0.005     0.000
  YS02001757              0.01     17.97      0  02:44       0.000     0.000
  YS02001625              0.86    168.20      0  03:01       0.231     0.000
  YS02001783              0.01    103.67      0  02:42       0.000     0.000
  YS02001784              0.01     40.65      0  02:42       0.000     0.000
  YS02001790              0.01    110.95      0  02:41       0.000     0.000
  JK-storage              1.37    664.94      0  03:00       2.059     0.000
  XR-storage              3.82    500.09      0  03:01       2.913     0.000
  
  
  **********************
  Storage Volume Summary
  **********************
  
  --------------------------------------------------------------------------------------------------
                         Average     Avg  Evap Exfil       Maximum     Max    Time of Max    Maximum
                          Volume    Pcnt  Pcnt  Pcnt        Volume    Pcnt     Occurrence    Outflow
  Storage Unit           1000 m3    Full  Loss  Loss       1000 m3    Full    days hr:min        LPS
  --------------------------------------------------------------------------------------------------
  JK-storage               0.124      43     0     0         0.291     100       0  02:42     600.00
  CC-storage               2.971      19     0     0         3.818      24       0  05:51     400.00
  XR-storage               0.838      90     0     0         0.926     100       0  02:48     379.98
  
  
  ***********************
  Outfall Loading Summary
  ***********************
  
  -----------------------------------------------------------
                         Flow       Avg       Max       Total
                         Freq      Flow      Flow      Volume
  Outfall Node           Pcnt       LPS       LPS    10^6 ltr
  -----------------------------------------------------------
  WSC                   99.99    622.94    899.46      15.596
  3                     95.64    249.41    538.34       5.242
  4                     47.84     57.95    227.22       0.582
  5                      0.00      0.00      0.00       0.000
  -----------------------------------------------------------
  System                60.87    930.30   1610.34      21.420
  
  
  ********************
  Link Flow Summary
  ********************
  
  -----------------------------------------------------------------------------
                                 Maximum  Time of Max   Maximum    Max/    Max/
                                  |Flow|   Occurrence   |Veloc|    Full    Full
  Link                 Type          LPS  days hr:min     m/sec    Flow   Depth
  -----------------------------------------------------------------------------
  WS02003066WSF200     CONDUIT    662.32     0  03:06      2.91    0.11    0.26
  WS02006287WS02006284 CONDUIT    375.44     0  03:02      1.98    0.17    0.29
  WS02006284WS02006280 CONDUIT    375.54     0  03:02      2.22    0.16    0.27
  WS02006280WS02006229 CONDUIT    375.58     0  03:02      3.58    0.08    0.19
  WS02006229WS02006228 CONDUIT    653.75     0  03:02      1.30    2.17    1.00
  WS02006256WS02006235 CONDUIT    166.25     0  00:01      2.58    1.76    1.00
  WS02006253WS02006251 CONDUIT     84.57     0  02:59      0.46    0.25    1.00
  WS02006252WS02006251 CONDUIT    400.26     0  07:30      3.19    1.47    1.00
  WS02006251WS02006249 CONDUIT    466.82     0  02:50      1.23    1.35    0.97
  WS02006249WS02006248 CONDUIT    357.68     0  02:10      1.15    1.96    0.92
  WS02006248WS02006247 CONDUIT    351.18     0  02:10      1.11    0.76    0.97
  WS02006247WS02006245 CONDUIT    340.52     0  02:10      1.07    2.70    1.00
  WS02006245WS02006243 CONDUIT    331.60     0  05:01      1.07    0.98    1.00
  WS02006243WS02006242 CONDUIT    321.27     0  05:01      0.93    0.69    1.00
  WS02006242WS02006240 CONDUIT    313.55     0  07:31      0.85    1.25    1.00
  WS02006240WS02006239 CONDUIT    309.71     0  06:41      0.84    0.97    1.00
  WS02006239WS02006238 CONDUIT    308.49     0  06:41      0.80    0.99    1.00
  WS02006238WS02006235 CONDUIT    308.55     0  06:41      1.25    0.69    1.00
  WS02006235WS02006234 CONDUIT    389.89     0  04:01      1.04    4.11    1.00
  WS02006234WS02006232 CONDUIT    389.20     0  04:01      1.13    0.79    1.00
  WS02006232WS02006231 CONDUIT    389.17     0  04:02      1.06    0.82    1.00
  WS02006231WS02006230 CONDUIT    388.21     0  04:02      1.35    5.89    1.00
  WS02006230WS02006229 CONDUIT    398.35     0  04:02      1.04    8.86    1.00
  WS02006228WS02006109 CONDUIT    653.65     0  03:02      1.30    2.86    1.00
  WS02006116WS02004401 CONDUIT    664.53     0  03:01      0.86    0.92    0.97
  WS02006115WS02006116 CONDUIT    666.89     0  03:01      0.90    0.86    0.89
  WS02006113WS02006111 CONDUIT    688.59     0  03:03      2.59    0.83    0.54
  WS02006112WS02006115 CONDUIT    668.25     0  02:53      0.88    0.39    0.94
  WS02006111WS02006112 CONDUIT    655.28     0  03:03      1.71    0.31    0.72
  WS02006110WS02006113 CONDUIT    656.11     0  03:02      1.50    0.60    0.82
  WS02006109WS02006110 CONDUIT    654.95     0  03:02      1.30    1.26    1.00
  WS02004411WS02004412 CONDUIT    662.45     0  03:03      1.03    0.94    0.76
  WS02004401WS02004402 CONDUIT    664.17     0  03:01      0.85    0.80    0.98
  WS02004413WS02003067 CONDUIT    662.28     0  03:06      1.25    0.28    0.64
  WS02004412WS02004413 CONDUIT    662.31     0  03:06      0.94    0.44    0.84
  WS02004410WS02004411 CONDUIT    662.47     0  03:05      1.03    0.90    0.76
  WS02004409WS02004410 CONDUIT    662.75     0  03:02      1.04    0.86    0.76
  WS02004407WS02004409 CONDUIT    662.97     0  03:02      1.53    0.23    0.54
  WS02004406WS02004407 CONDUIT    663.30     0  03:02      1.20    0.30    0.66
  WS02004405WS02004406 CONDUIT    663.09     0  03:02      0.84    1.31    1.00
  WS02004404WS02004405 CONDUIT    663.00     0  03:02      0.84    6.50    1.00
  WS02004403WS02004404 CONDUIT    662.80     0  03:02      0.84    0.48    1.00
  WS02004402WS02004403 CONDUIT    663.28     0  03:01      0.85    0.95    0.99
  WS02004139WS02001211 CONDUIT    373.46     0  04:20      0.69    0.47    0.58
  WS02004138WS02004139 CONDUIT    379.36     0  00:20      2.94    0.08    0.43
  WS02003067WS02003066 CONDUIT    662.30     0  03:06      1.36    0.21    0.45
  WS02001213WS02003059 CONDUIT    374.42     0  04:21      0.67    0.62    0.74
  WS02001212WS02001213 CONDUIT    374.82     0  04:21      1.30    0.58    0.44
  WS02001211WS02001212 CONDUIT    376.28     0  04:20      0.76    0.29    0.62
  WS02003072WS02003073 CONDUIT    898.04     0  02:44      1.70    1.94    0.47
  WS02003069WS02003072 CONDUIT    898.29     0  02:43      1.60    0.43    0.50
  WS02003060WS02003069 CONDUIT    898.41     0  02:43      1.85    0.35    0.45
  WS02003059WS02003060 CONDUIT    374.33     0  04:22      0.92    0.24    0.64
  HS02004901HS02004770 CONDUIT     17.71     0  03:01      0.07    0.07    0.39
  HS02004876HS02004881 CONDUIT     71.90     0  03:01      0.92    0.76    0.11
  HS02004870HS02004876 CONDUIT     58.03     0  03:01      0.63    0.04    0.13
  HS02004842HS02004848 CONDUIT     11.42     0  03:01      0.05    0.01    0.30
  HS02004837HS02004842 CONDUIT     11.94     0  03:02      0.41    0.01    0.32
  HS02004830HS02004837 CONDUIT     41.69     0  03:01      0.56    0.04    0.11
  HS02004824HS02004830 CONDUIT     41.67     0  03:01      0.58    0.05    0.10
  HS02004817HS02004824 CONDUIT     81.58     0  03:01      0.25    0.04    0.47
  HS02004770HS02004777 CONDUIT     90.21     0  03:01      0.32    0.16    0.41
  HS02004799HS02004480 CONDUIT    226.98     0  03:01      0.78    0.29    0.42
  HS02004792HS02004799 CONDUIT    206.60     0  03:01      0.88    0.13    0.33
  HS02004788HS02004792 CONDUIT    118.94     0  03:01      1.01    0.08    0.17
  HS02004785HS02004788 CONDUIT     89.52     0  03:02      0.66    0.67    0.19
  HS02004777HS02004785 CONDUIT     89.64     0  03:01      0.38    0.11    0.33
  HS02004480HS02004478 CONDUIT    269.12     0  03:01      1.20    1.13    0.32
  HS02004479HS02004480 CONDUIT     44.17     0  03:02      0.23    0.04    0.40
  HS02004862HS02004870 CONDUIT     44.23     0  03:01      0.64    0.05    0.10
  HS02004848HS02004852 CONDUIT     20.44     0  03:01      0.44    0.02    0.07
  HS02004856HS02004862 CONDUIT     30.57     0  03:01      0.47    0.03    0.09
  HS02004852HS02004856 CONDUIT     20.26     0  03:01      0.24    0.02    0.12
  HS02004802HS02004478 CONDUIT    106.59     0  03:02      0.45    0.09    0.35
  HS02004478WS02006287 CONDUIT    375.27     0  03:01      1.68    0.11    0.25
  HS02004817HS02004807 CONDUIT     82.18     0  03:01      0.19    0.05    0.62
  HS02004807HS02004802 CONDUIT    106.49     0  03:01      0.38    0.20    0.40
  YS02001759YS02001757 CONDUIT    677.56     0  02:56      0.86    0.48    1.00
  YS02001762YS02001759 CONDUIT    344.26     0  02:56      0.44    0.40    1.00
  YS02001765YS02001762 CONDUIT    344.36     0  02:56      0.44    0.32    1.00
  YS02001770YS02001767 CONDUIT    343.82     0  02:56      0.44    1.36    1.00
  YS02001774YS02001770 CONDUIT    221.34     0  03:28      0.28    0.14    1.00
  YS02001779YS02001774 CONDUIT    221.62     0  03:28      0.28    0.11    1.00
  YS02001649YS02001757 CONDUIT    943.99     0  02:50      1.20    0.57    1.00
  YS02001767YS02001765 CONDUIT    344.46     0  02:56      0.44    0.43    1.00
  YS02006561YS02001783 CONDUIT    964.13     0  03:01      2.12    0.50    1.00
  YS02001783YS02001784 CONDUIT    964.09     0  03:01      1.92    1.33    1.00
  YS02001784YS02001785 CONDUIT    965.09     0  03:01      1.92    2.25    1.00
  YS02001788YS02001790 CONDUIT    965.25     0  03:01      2.32    0.71    1.00
  YS02001790YS02001791 CONDUIT    965.37     0  03:01      2.85    1.05    1.00
  YS02001791YS02001793 CONDUIT    965.49     0  03:01      5.72    0.41    1.00
  YS02001910YS02001907 CONDUIT    461.96     0  02:55      0.59    0.26    1.00
  YS02001786YS02001788 CONDUIT    965.18     0  03:01      2.23    1.86    1.00
  YS02001915YS02001910 CONDUIT    462.03     0  02:55      0.59    0.23    1.00
  YS02001918YS02001915 CONDUIT    225.31     0  02:55      0.44    0.12    1.00
  YS02001923YS02001920 CONDUIT    221.49     0  02:55      0.68    0.10    1.00
  YS02001926YS02001923 CONDUIT    239.94     0  02:55      0.79    0.34    0.90
  YS02001929YS02001926 CONDUIT    201.90     0  02:54      0.84    0.10    0.80
  YS02001920YS02001918 CONDUIT    224.41     0  02:55      0.67    0.22    1.00
  YS02001629YS02163301 CONDUIT    208.69     0  02:50      0.27    0.26    1.00
  YS02001619YS02001622 CONDUIT    257.41     0  03:01      0.61    0.38    1.00
  YS02001622YS02001625 CONDUIT    257.42     0  03:01      0.33    0.14    1.00
  YS02001625YS02001629 CONDUIT    208.65     0  02:50      0.27    0.10    1.00
  YS02163301YS02001633 CONDUIT    208.59     0  02:50      0.27    0.20    1.00
  YS02163601YS02164001 CONDUIT    442.22     0  02:50      0.56    0.39    1.00
  YS02164001YS02001641 CONDUIT    442.09     0  02:50      0.56    0.60    1.00
  YS02001641YS02001644 CONDUIT    441.88     0  02:50      0.56    1.43    1.00
  YS02001647YS02001649 CONDUIT    672.03     0  02:50      0.86    0.35    1.00
  YS02006553YS02006556 CONDUIT    667.21     0  03:17      0.85    0.57    1.00
  YS02006556YS02006558 CONDUIT    667.35     0  03:17      0.85    0.53    1.00
  YSB6556YSB1171       CONDUIT     24.81     0  03:03      0.09    0.03    0.67
  YS02001907YS02006553 CONDUIT    667.08     0  03:17      0.74    0.78    1.00
  YS02006558YS02006561 CONDUIT    964.10     0  03:01      3.41    2.13    1.00
  YS02001633YS02163601 CONDUIT    442.19     0  02:50      0.56    0.46    1.00
  YS02001644YS02001647 CONDUIT    672.15     0  02:50      0.86    0.39    1.00
  YS02001745YS02001748 CONDUIT    604.48     0  02:42      1.48    0.23    0.94
  YS02001748YS02001751 CONDUIT    308.36     0  03:01      1.05    0.16    1.00
  YS02001751YS02001754 CONDUIT    308.51     0  03:01      0.88    0.15    1.00
  YS02001754YS02001757 CONDUIT    308.87     0  03:01      0.39    0.12    1.00
  YS02001882YS02001884 CONDUIT     24.85     0  02:45      0.09    0.03    1.00
  YS02001884YS02001887 CONDUIT     54.78     0  02:44      0.07    0.07    1.00
  YS02001890YS02001895 CONDUIT    453.68     0  03:01      0.58    0.21    1.00
  YS02001895YS02001898 CONDUIT    453.58     0  03:01      0.58    0.79    1.00
  YS02001898YS02001901 CONDUIT    453.70     0  03:01      0.58    0.29    1.00
  YS02001901YS02001904 CONDUIT    453.70     0  03:01      0.58    0.70    1.00
  YS02001904YS02001907 CONDUIT    453.76     0  03:01      0.58    0.16    1.00
  YS02001887YS02001890 CONDUIT    453.60     0  03:00      0.58    0.78    1.00
  YS02001652YS02001649 CONDUIT    373.46     0  03:01      0.50    0.19    1.00
  YS02001655YS02001652 CONDUIT    373.24     0  03:01      0.93    0.18    1.00
  YS02001658YS02001655 CONDUIT    373.19     0  03:01      1.21    0.16    1.00
  YS02001661YS02001658 CONDUIT    560.66     0  02:40      1.56    0.22    1.00
  YS02001664YS02001661 CONDUIT    697.05     0  02:55      1.60    0.22    0.71
  YSB1154YSB6556       CONDUIT     24.91     0  03:01      0.18    0.04    0.56
  YSB1174YSB1171       CONDUIT     18.78     0  03:01      0.07    0.03    0.68
  YSB1171HS02004479    CONDUIT     42.82     0  03:02      0.54    0.03    0.53
  HS02004881HS02006253 CONDUIT     79.15     0  03:01      1.70    0.02    0.31
  YS02001793JiankangQianchi CONDUIT    965.49     0  03:00     15.21    0.08    1.00
  YS02001757CaochengTiaoxuchi CONDUIT   1793.11     0  02:52      2.41    0.79    1.00
  WSF200WS02003060     CONDUIT    662.54     0  03:06      1.97    0.15    0.35
  1                    CONDUIT    899.46     0  02:45      3.23    0.31    0.38
  2                    CONDUIT    227.22     0  02:50      6.03    0.54    0.53
  3                    CONDUIT    538.34     0  02:50      9.91    0.86    0.72
  4                    CONDUIT      0.00     0  00:00      0.00    0.00    0.00
  CC-Pump-1            PUMP       200.00     0  02:40              1.00
  CC-Pump-2            PUMP       200.00     0  02:10              1.00
  JK-Pump-1            PUMP       300.00     0  00:00              1.00
  JK-Pump-2            PUMP       300.00     0  02:20              1.00
  XR-Pump-1            PUMP        95.00     0  00:20              1.00
  XR-Pump-2            PUMP        95.00     0  00:00              1.00
  XR-Pump-3            PUMP        95.00     0  00:00              1.00
  XR-Pump-4            PUMP        95.00     0  00:20              1.00
  
  
  ***************************
  Flow Classification Summary
  ***************************
  
  -------------------------------------------------------------------------------------
                      Adjusted    ---------- Fraction of Time in Flow Class ---------- 
                       /Actual         Up    Down  Sub   Sup   Up    Down  Norm  Inlet 
  Conduit               Length    Dry  Dry   Dry   Crit  Crit  Crit  Crit  Ltd   Ctrl  
  -------------------------------------------------------------------------------------
  WS02003066WSF200        1.00   0.03  0.02  0.00  0.00  0.95  0.00  0.00  0.61  0.00
  WS02006287WS02006284    1.00   0.03  0.01  0.00  0.58  0.37  0.00  0.00  0.65  0.00
  WS02006284WS02006280    1.00   0.04  0.00  0.00  0.00  0.00  0.00  0.96  0.00  0.00
  WS02006280WS02006229    1.00   0.04  0.00  0.00  0.00  0.00  0.00  0.96  0.00  0.00
  WS02006229WS02006228    1.00   0.00  0.00  0.00  0.99  0.00  0.00  0.01  0.00  0.00
  WS02006256WS02006235    1.00   0.00  0.00  0.00  1.00  0.00  0.00  0.00  0.00  0.00
  WS02006253WS02006251    1.00   0.03  0.01  0.00  0.96  0.00  0.00  0.00  0.00  0.00
  WS02006252WS02006251    1.00   0.07  0.00  0.00  0.00  0.00  0.93  0.00  0.00  0.00
  WS02006251WS02006249    1.00   0.00  0.00  0.00  1.00  0.00  0.00  0.00  0.23  0.00
  WS02006249WS02006248    1.00   0.00  0.02  0.00  0.92  0.00  0.06  0.00  0.00  0.00
  WS02006248WS02006247    1.00   0.02  0.00  0.00  0.98  0.00  0.00  0.00  0.10  0.00
  WS02006247WS02006245    1.00   0.02  0.00  0.00  0.98  0.00  0.00  0.00  0.00  0.00
  WS02006245WS02006243    1.00   0.01  0.00  0.00  0.96  0.00  0.00  0.03  0.01  0.00
  WS02006243WS02006242    1.00   0.01  0.00  0.00  0.99  0.00  0.00  0.00  0.20  0.00
  WS02006242WS02006240    1.00   0.00  0.00  0.00  1.00  0.00  0.00  0.00  0.00  0.00
  WS02006240WS02006239    1.00   0.00  0.00  0.00  0.97  0.00  0.00  0.03  0.01  0.00
  WS02006239WS02006238    1.00   0.00  0.00  0.00  1.00  0.00  0.00  0.00  0.00  0.00
  WS02006238WS02006235    1.00   0.00  0.00  0.00  1.00  0.00  0.00  0.00  0.00  0.00
  WS02006235WS02006234    1.00   0.00  0.00  0.00  0.97  0.00  0.03  0.00  0.00  0.00
  WS02006234WS02006232    1.00   0.00  0.00  0.00  1.00  0.00  0.00  0.00  0.05  0.00
  WS02006232WS02006231    1.00   0.00  0.00  0.00  0.99  0.00  0.00  0.00  0.00  0.00
  WS02006231WS02006230    1.00   0.00  0.00  0.00  0.77  0.00  0.23  0.00  0.00  0.00
  WS02006230WS02006229    1.00   0.00  0.00  0.00  0.99  0.00  0.00  0.01  0.01  0.00
  WS02006228WS02006109    1.00   0.00  0.00  0.00  1.00  0.00  0.00  0.00  0.00  0.00
  WS02006116WS02004401    1.00   0.02  0.00  0.00  0.98  0.00  0.00  0.00  0.00  0.00
  WS02006115WS02006116    1.00   0.02  0.00  0.00  0.97  0.00  0.00  0.01  0.00  0.00
  WS02006113WS02006111    1.00   0.02  0.00  0.00  0.00  0.98  0.00  0.00  0.09  0.00
  WS02006112WS02006115    1.00   0.02  0.00  0.00  0.98  0.00  0.00  0.00  0.00  0.00
  WS02006111WS02006112    1.00   0.02  0.00  0.00  0.98  0.00  0.00  0.00  0.91  0.00
  WS02006110WS02006113    1.00   0.01  0.01  0.00  0.98  0.00  0.00  0.00  0.00  0.00
  WS02006109WS02006110    1.00   0.00  0.01  0.00  0.98  0.00  0.01  0.00  0.00  0.00
  WS02004411WS02004412    1.00   0.03  0.00  0.00  0.97  0.00  0.00  0.00  0.00  0.00
  WS02004401WS02004402    1.00   0.02  0.00  0.00  0.98  0.00  0.00  0.00  0.00  0.00
  WS02004413WS02003067    1.00   0.04  0.01  0.00  0.00  0.00  0.95  0.00  0.00  0.00
  WS02004412WS02004413    1.00   0.03  0.00  0.00  0.97  0.00  0.00  0.00  0.03  0.00
  WS02004410WS02004411    1.00   0.03  0.00  0.00  0.97  0.00  0.00  0.00  0.03  0.00
  WS02004409WS02004410    1.00   0.03  0.00  0.00  0.97  0.00  0.00  0.00  0.03  0.00
  WS02004407WS02004409    1.00   0.03  0.00  0.00  0.96  0.00  0.00  0.00  0.89  0.00
  WS02004406WS02004407    1.00   0.00  0.03  0.00  0.97  0.00  0.00  0.00  0.00  0.00
  WS02004405WS02004406    1.00   0.00  0.00  0.00  1.00  0.00  0.00  0.00  0.01  0.00
  WS02004404WS02004405    1.00   0.00  0.00  0.00  1.00  0.00  0.00  0.00  0.00  0.00
  WS02004403WS02004404    1.00   0.00  0.02  0.00  0.98  0.00  0.00  0.00  0.01  0.00
  WS02004402WS02004403    1.00   0.02  0.00  0.00  0.98  0.00  0.00  0.00  0.00  0.00
  WS02004139WS02001211    1.00   0.00  0.00  0.00  1.00  0.00  0.00  0.00  0.00  0.00
  WS02004138WS02004139    1.00   0.00  0.00  0.00  0.99  0.01  0.00  0.00  1.00  0.00
  WS02003067WS02003066    1.00   0.05  0.00  0.00  0.95  0.00  0.00  0.00  0.00  0.00
  WS02001213WS02003059    1.00   0.00  0.00  0.00  0.99  0.00  0.00  0.00  0.00  0.00
  WS02001212WS02001213    1.00   0.00  0.00  0.00  0.91  0.00  0.08  0.00  0.00  0.00
  WS02001211WS02001212    1.00   0.00  0.00  0.00  1.00  0.00  0.00  0.00  0.00  0.00
  WS02003072WS02003073    1.00   0.00  0.00  0.00  0.00  0.00  0.00  1.00  0.00  0.00
  WS02003069WS02003072    1.00   0.00  0.00  0.00  0.99  0.01  0.00  0.00  0.20  0.00
  WS02003060WS02003069    1.00   0.00  0.00  0.00  0.99  0.01  0.00  0.00  0.10  0.00
  WS02003059WS02003060    1.00   0.00  0.00  0.00  1.00  0.00  0.00  0.00  0.01  0.00
  HS02004901HS02004770    1.00   0.04  0.00  0.00  0.96  0.00  0.00  0.00  0.00  0.00
  HS02004876HS02004881    1.00   0.02  0.00  0.00  0.89  0.09  0.00  0.00  0.00  0.00
  HS02004870HS02004876    1.00   0.01  0.00  0.00  0.99  0.00  0.00  0.00  0.95  0.00
  HS02004842HS02004848    1.00   0.00  0.04  0.00  0.96  0.00  0.00  0.00  0.58  0.00
  HS02004837HS02004842    1.00   0.00  0.00  0.00  0.99  0.01  0.00  0.00  0.11  0.00
  HS02004830HS02004837    1.00   0.00  0.00  0.00  1.00  0.00  0.00  0.00  0.99  0.00
  HS02004824HS02004830    1.00   0.00  0.00  0.00  1.00  0.00  0.00  0.00  0.00  0.00
  HS02004817HS02004824    1.00   0.00  0.00  0.00  1.00  0.00  0.00  0.00  1.00  0.00
  HS02004770HS02004777    1.00   0.00  0.04  0.00  0.96  0.00  0.00  0.00  0.03  0.00
  HS02004799HS02004480    1.00   0.00  0.02  0.00  0.96  0.00  0.02  0.00  0.00  0.00
  HS02004792HS02004799    1.00   0.00  0.00  0.00  0.99  0.01  0.00  0.00  0.98  0.00
  HS02004788HS02004792    1.00   0.00  0.00  0.00  0.99  0.01  0.00  0.00  0.98  0.00
  HS02004785HS02004788    1.00   0.00  0.00  0.00  1.00  0.00  0.00  0.00  0.00  0.00
  HS02004777HS02004785    1.00   0.00  0.00  0.00  1.00  0.00  0.00  0.00  0.14  0.00
  HS02004480HS02004478    1.00   0.04  0.00  0.00  0.65  0.00  0.00  0.31  0.00  0.00
  HS02004479HS02004480    1.00   0.02  0.00  0.00  0.98  0.00  0.00  0.00  0.12  0.00
  HS02004862HS02004870    1.00   0.00  0.00  0.00  1.00  0.00  0.00  0.00  0.05  0.00
  HS02004848HS02004852    1.00   0.04  0.00  0.00  0.96  0.00  0.00  0.00  0.61  0.00
  HS02004856HS02004862    1.00   0.00  0.05  0.00  0.95  0.00  0.00  0.00  0.80  0.00
  HS02004852HS02004856    1.00   0.04  0.00  0.00  0.96  0.00  0.00  0.00  0.85  0.00
  HS02004802HS02004478    1.00   0.04  0.00  0.00  0.96  0.00  0.00  0.00  0.03  0.00
  HS02004478WS02006287    1.00   0.04  0.00  0.00  0.72  0.24  0.00  0.00  0.66  0.00
  HS02004817HS02004807    1.00   0.00  0.04  0.00  0.96  0.00  0.00  0.00  0.01  0.00
  HS02004807HS02004802    1.00   0.04  0.00  0.00  0.96  0.00  0.00  0.00  0.00  0.00
  YS02001759YS02001757    1.00   0.00  0.00  0.00  1.00  0.00  0.00  0.00  0.16  0.00
  YS02001762YS02001759    1.00   0.00  0.00  0.00  1.00  0.00  0.00  0.00  0.04  0.00
  YS02001765YS02001762    1.00   0.00  0.00  0.00  1.00  0.00  0.00  0.00  0.16  0.00
  YS02001770YS02001767    1.00   0.00  0.00  0.00  1.00  0.00  0.00  0.00  0.00  0.00
  YS02001774YS02001770    1.00   0.00  0.04  0.00  0.96  0.00  0.00  0.00  0.04  0.00
  YS02001779YS02001774    1.00   0.00  0.00  0.00  1.00  0.00  0.00  0.00  0.21  0.00
  YS02001649YS02001757    1.00   0.00  0.00  0.00  1.00  0.00  0.00  0.00  0.17  0.00
  YS02001767YS02001765    1.00   0.00  0.00  0.00  1.00  0.00  0.00  0.00  0.00  0.00
  YS02006561YS02001783    1.00   0.05  0.00  0.00  0.29  0.66  0.00  0.00  0.51  0.00
  YS02001783YS02001784    1.00   0.00  0.05  0.00  0.95  0.00  0.00  0.00  0.01  0.00
  YS02001784YS02001785    1.00   0.00  0.00  0.00  1.00  0.00  0.00  0.00  0.20  0.00
  YS02001788YS02001790    1.00   0.00  0.00  0.00  0.36  0.64  0.00  0.00  0.49  0.00
  YS02001790YS02001791    1.00   0.00  0.00  0.00  0.35  0.65  0.00  0.00  0.48  0.00
  YS02001791YS02001793    1.00   0.00  0.00  0.00  0.39  0.61  0.00  0.00  0.05  0.00
  YS02001910YS02001907    1.00   0.00  0.00  0.00  0.98  0.00  0.00  0.02  0.13  0.00
  YS02001786YS02001788    1.00   0.00  0.00  0.00  0.34  0.66  0.00  0.00  0.00  0.00
  YS02001915YS02001910    1.00   0.00  0.00  0.00  0.99  0.01  0.00  0.00  0.18  0.00
  YS02001918YS02001915    1.00   0.00  0.01  0.00  0.98  0.01  0.00  0.00  0.58  0.00
  YS02001923YS02001920    1.00   0.00  0.00  0.00  1.00  0.00  0.00  0.00  0.86  0.00
  YS02001926YS02001923    1.00   0.00  0.03  0.00  0.14  0.00  0.83  0.00  0.00  0.00
  YS02001929YS02001926    1.00   0.00  0.04  0.00  0.96  0.00  0.00  0.00  0.78  0.00
  YS02001920YS02001918    1.00   0.00  0.01  0.00  0.99  0.00  0.00  0.00  0.00  0.00
  YS02001629YS02163301    1.00   0.04  0.00  0.00  0.95  0.00  0.00  0.00  0.00  0.00
  YS02001619YS02001622    1.00   0.04  0.00  0.00  0.96  0.00  0.00  0.00  0.00  0.00
  YS02001622YS02001625    1.00   0.04  0.00  0.00  0.96  0.00  0.00  0.00  0.07  0.00
  YS02001625YS02001629    1.00   0.04  0.01  0.00  0.93  0.00  0.02  0.00  0.00  0.00
  YS02163301YS02001633    1.00   0.00  0.04  0.00  0.96  0.00  0.00  0.00  0.00  0.00
  YS02163601YS02164001    1.00   0.00  0.03  0.00  0.97  0.00  0.00  0.00  0.00  0.00
  YS02164001YS02001641    1.00   0.01  0.02  0.00  0.97  0.00  0.00  0.00  0.06  0.00
  YS02001641YS02001644    1.00   0.00  0.01  0.00  0.99  0.00  0.00  0.00  0.00  0.00
  YS02001647YS02001649    1.00   0.00  0.05  0.00  0.95  0.00  0.00  0.00  0.01  0.00
  YS02006553YS02006556    1.00   0.01  0.00  0.00  0.99  0.00  0.00  0.00  0.03  0.00
  YS02006556YS02006558    1.00   0.00  0.00  0.00  1.00  0.00  0.00  0.00  0.00  0.00
  YSB6556YSB1171          1.00   0.02  0.01  0.00  0.96  0.00  0.00  0.00  0.00  0.00
  YS02001907YS02006553    1.00   0.00  0.02  0.00  0.98  0.00  0.00  0.00  0.00  0.00
  YS02006558YS02006561    1.00   0.05  0.00  0.00  0.18  0.77  0.00  0.00  0.47  0.00
  YS02001633YS02163601    1.00   0.00  0.01  0.00  0.99  0.00  0.00  0.00  0.16  0.00
  YS02001644YS02001647    1.00   0.00  0.05  0.00  0.95  0.00  0.00  0.00  0.00  0.00
  YS02001745YS02001748    1.00   0.00  0.00  0.00  0.89  0.01  0.00  0.09  0.05  0.00
  YS02001748YS02001751    1.00   0.00  0.00  0.00  0.97  0.03  0.00  0.00  0.15  0.00
  YS02001751YS02001754    1.00   0.00  0.00  0.00  0.94  0.00  0.00  0.05  0.02  0.00
  YS02001754YS02001757    1.00   0.00  0.00  0.00  0.99  0.01  0.00  0.00  0.20  0.00
  YS02001882YS02001884    1.00   0.04  0.00  0.00  0.96  0.00  0.00  0.00  0.00  0.00
  YS02001884YS02001887    1.00   0.03  0.01  0.00  0.96  0.00  0.00  0.00  0.00  0.00
  YS02001890YS02001895    1.00   0.00  0.04  0.00  0.95  0.00  0.00  0.00  0.00  0.00
  YS02001895YS02001898    1.00   0.05  0.00  0.00  0.95  0.00  0.01  0.00  0.00  0.00
  YS02001898YS02001901    1.00   0.05  0.00  0.00  0.95  0.00  0.00  0.00  0.02  0.00
  YS02001901YS02001904    1.00   0.05  0.00  0.00  0.95  0.00  0.00  0.00  0.00  0.00
  YS02001904YS02001907    1.00   0.00  0.04  0.00  0.95  0.00  0.00  0.00  0.00  0.00
  YS02001887YS02001890    1.00   0.00  0.00  0.00  0.98  0.00  0.02  0.00  0.00  0.00
  YS02001652YS02001649    1.00   0.00  0.00  0.00  1.00  0.00  0.00  0.00  0.18  0.00
  YS02001655YS02001652    1.00   0.00  0.00  0.00  0.95  0.00  0.00  0.05  0.02  0.00
  YS02001658YS02001655    1.00   0.00  0.04  0.00  0.93  0.03  0.00  0.00  0.11  0.00
  YS02001661YS02001658    1.00   0.04  0.00  0.00  0.89  0.07  0.00  0.00  0.06  0.00
  YS02001664YS02001661    1.00   0.04  0.00  0.00  0.87  0.10  0.00  0.00  0.22  0.00
  YSB1154YSB6556          1.00   0.04  0.00  0.00  0.96  0.00  0.00  0.00  0.02  0.00
  YSB1174YSB1171          1.00   0.03  0.01  0.00  0.97  0.00  0.00  0.00  0.00  0.00
  YSB1171HS02004479       1.00   0.02  0.00  0.00  0.97  0.00  0.00  0.00  0.11  0.00
  HS02004881HS02006253    1.00   0.03  0.00  0.00  0.85  0.01  0.00  0.12  0.68  0.00
  YS02001793JiankangQianchi    1.00   0.00  0.00  0.00  0.54  0.46  0.00  0.00  0.14  0.00
  YS02001757CaochengTiaoxuchi    1.00   0.00  0.07  0.00  0.92  0.01  0.00  0.00  0.00  0.00
  WSF200WS02003060        1.00   0.00  0.03  0.00  0.56  0.40  0.00  0.00  0.23  0.00
  1                       1.00   0.00  0.00  0.00  0.00  1.00  0.00  0.00  0.35  0.00
  2                       1.00   0.52  0.00  0.00  0.00  0.48  0.00  0.00  0.13  0.00
  3                       1.00   0.04  0.00  0.00  0.00  0.96  0.00  0.00  0.21  0.00
  4                       1.00   1.00  0.00  0.00  0.00  0.00  0.00  0.00  0.00  0.00
  
  
  *************************
  Conduit Surcharge Summary
  *************************
  
  ----------------------------------------------------------------------------
                                                           Hours        Hours 
                         --------- Hours Full --------   Above Full   Capacity
  Conduit                Both Ends  Upstream  Dnstream   Normal Flow   Limited
  ----------------------------------------------------------------------------
  WS02006229WS02006228        2.33      2.74      2.33      5.41         2.33
  WS02006256WS02006235        6.14      6.14      7.69      3.37         0.01
  WS02006253WS02006251        0.01      0.01      0.08      0.01         0.01
  WS02006252WS02006251        0.89      0.89      2.48      2.07         0.01
  WS02006251WS02006249        0.01      0.02      0.01      1.13         0.01
  WS02006249WS02006248        0.01      0.01      0.01      5.15         0.01
  WS02006248WS02006247        0.01      0.01      0.07      0.01         0.01
  WS02006247WS02006245        0.06      0.15      0.06      5.40         0.05
  WS02006245WS02006243        0.10      0.10      0.38      0.01         0.01
  WS02006243WS02006242        0.48      0.48      1.65      0.01         0.01
  WS02006242WS02006240        1.10      1.10      2.32      2.16         0.01
  WS02006240WS02006239        1.23      1.23      1.33      0.01         0.01
  WS02006239WS02006238        2.14      2.14      2.33      0.01         0.01
  WS02006238WS02006235        2.12      2.12      2.73      0.01         0.01
  WS02006235WS02006234        1.14      1.14      1.83      6.17         0.01
  WS02006234WS02006232        1.37      1.37      2.84      0.01         0.01
  WS02006232WS02006231        1.04      1.04      2.84      0.01         0.01
  WS02006231WS02006230        0.57      0.57      1.06      6.16         0.01
  WS02006230WS02006229        3.95      5.26      3.95      6.25         3.95
  WS02006228WS02006109        2.53      3.45      2.53      5.83         2.53
  WS02006112WS02006115        0.01      0.01      1.21      0.01         0.01
  WS02006111WS02006112        0.01      0.01      5.46      0.01         0.01
  WS02006110WS02006113        0.01      0.01      3.06      0.01         0.01
  WS02006109WS02006110        1.11      1.11      3.45      1.12         0.01
  WS02004406WS02004407        0.01      0.01      0.41      0.01         0.01
  WS02004405WS02004406        0.41      0.52      0.41      1.17         0.41
  WS02004404WS02004405        0.52      0.72      0.52      6.00         0.52
  WS02004403WS02004404        0.01      0.01      0.72      0.01         0.01
  WS02003072WS02003073        0.01      0.01      0.01      5.47         0.01
  HS02004480HS02004478        0.01      0.01      0.01      0.25         0.01
  YS02001759YS02001757        5.66      5.66      5.74      0.01         0.01
  YS02001762YS02001759        5.64      5.64      5.66      0.01         0.01
  YS02001765YS02001762        5.61      5.61      5.64      0.01         0.01
  YS02001770YS02001767        5.58      5.58      5.58      0.34         0.84
  YS02001774YS02001770        5.51      5.51      5.63      0.01         0.01
  YS02001779YS02001774        5.39      5.39      5.63      0.01         0.01
  YS02001649YS02001757        5.64      5.64      5.74      0.01         0.01
  YS02001767YS02001765        5.58      5.58      5.61      0.01         0.01
  YS02006561YS02001783        0.65      0.65      1.20      0.01         0.01
  YS02001783YS02001784        1.20      1.20      1.27      1.15         0.98
  YS02001784YS02001785        1.20      1.27      1.20      2.07         1.20
  YS02001788YS02001790        1.19      1.19      1.66      0.01         0.01
  YS02001790YS02001791        1.66      1.66      1.77      0.48         0.48
  YS02001791YS02001793        1.77      1.77      2.08      0.01         0.01
  YS02001910YS02001907        0.97      0.97      1.48      0.01         0.01
  YS02001786YS02001788        1.19      1.20      1.19      1.74         1.19
  YS02001915YS02001910        0.77      0.77      0.97      0.01         0.01
  YS02001918YS02001915        0.52      0.52      0.77      0.01         0.01
  YS02001923YS02001920        0.28      0.28      0.55      0.01         0.01
  YS02001920YS02001918        0.52      0.52      0.55      0.01         0.01
  YS02001629YS02163301        5.52      5.52      5.58      0.01         0.01
  YS02001619YS02001622        5.23      5.23      5.25      0.01         0.01
  YS02001622YS02001625        5.25      5.25      5.41      0.01         0.01
  YS02001625YS02001629        5.23      5.23      5.41      0.01         0.01
  YS02163301YS02001633        5.58      5.58      5.61      0.01         0.01
  YS02163601YS02164001        5.61      5.61      5.64      0.01         0.01
  YS02164001YS02001641        5.61      5.61      5.62      0.01         0.02
  YS02001641YS02001644        5.62      5.62      5.62      1.22         1.34
  YS02001647YS02001649        5.42      5.42      5.64      0.01         0.01
  YS02006553YS02006556        1.20      1.20      1.53      0.01         0.01
  YS02006556YS02006558        1.36      1.36      1.62      0.01         0.01
  YS02001907YS02006553        2.09      2.09      2.30      0.01         0.01
  YS02006558YS02006561        0.87      1.15      0.87      1.94         0.87
  YS02001633YS02163601        5.60      5.60      5.64      0.01         0.01
  YS02001644YS02001647        5.42      5.42      5.62      0.01         0.01
  YS02001745YS02001748        0.01      0.01      5.05      0.01         0.01
  YS02001748YS02001751        5.10      5.10      5.20      0.01         0.01
  YS02001751YS02001754        5.20      5.20      5.40      0.01         0.01
  YS02001754YS02001757        5.41      5.41      5.74      0.01         0.01
  YS02001882YS02001884        0.78      0.78      0.82      0.01         0.01
  YS02001884YS02001887        0.87      0.87      0.89      0.01         0.01
  YS02001890YS02001895        0.75      0.75      0.99      0.01         0.01
  YS02001895YS02001898        0.73      0.73      0.75      0.01         0.01
  YS02001898YS02001901        0.76      0.76      0.86      0.01         0.01
  YS02001901YS02001904        0.84      0.84      0.86      0.01         0.01
  YS02001904YS02001907        0.84      0.84      1.56      0.01         0.01
  YS02001887YS02001890        0.93      0.93      0.96      0.01         0.01
  YS02001652YS02001649        5.42      5.42      5.64      0.01         0.01
  YS02001655YS02001652        5.25      5.25      5.41      0.01         0.01
  YS02001658YS02001655        5.08      5.08      5.25      0.01         0.01
  YS02001661YS02001658        0.19      0.19      5.08      0.01         0.01
  YS02001664YS02001661        0.01      0.01      1.09      0.01         0.01
  YS02001793JiankangQianchi        2.05      2.05      2.99      0.01         0.01
  YS02001757CaochengTiaoxuchi        4.87      4.87      5.74      0.01         0.01
  
  
  ***************
  Pumping Summary
  ***************
  
  ---------------------------------------------------------------------------------------------------------
                                                  Min       Avg       Max     Total     Power    % Time Off
                        Percent   Number of      Flow      Flow      Flow    Volume     Usage    Pump Curve
  Pump                 Utilized   Start-Ups       LPS       LPS       LPS  10^6 ltr     Kw-hr    Low   High
  ---------------------------------------------------------------------------------------------------------
  CC-Pump-1               69.42           4      0.00    160.49    200.00     3.073      3.96    0.0    8.4
  CC-Pump-2               63.04           7      0.00    117.35    200.00     2.053      3.43    0.0   12.6
  JK-Pump-1               89.36           6      0.00    164.44    300.00     3.231     39.20    0.0    0.0
  JK-Pump-2               89.34           4      0.00    196.18    300.00     4.169     47.76    0.0    0.0
  XR-Pump-1               82.96           9      0.00     66.02     95.00     1.567     13.09    0.0    0.0
  XR-Pump-2               85.10           7      0.00     66.57     95.00     1.682     16.62    0.0    0.0
  XR-Pump-3               80.85           9      0.00     70.70     95.00     1.596     12.91    0.0    0.0
  XR-Pump-4               89.34          10      0.00     59.93     95.00     1.567     13.55    0.0    0.0
  

  Analysis begun on:  Wed Dec 22 17:53:16 2021
  Analysis ended on:  Wed Dec 22 17:53:21 2021
  Total elapsed time: 00:00:05