
  EPA STORM WATER MANAGEMENT MODEL - VERSION 5.1 (Build 5.3.0.dev0)
  --------------------------------------------------------------

  WARNING 04: minimum elevation drop used for Conduit WS02004404WS02004405
  WARNING 03: negative offset ignored for Link YS02001904YS02001907
  
  *********************************************************
  NOTE: The summary statistics displayed in this report are
  based on results found at every computational time step,  
  not just on results from each reporting time step.
  *********************************************************
  
  ****************
  Analysis Options
  ****************
  Flow Units ............... LPS
  Process Models:
    Rainfall/Runoff ........ YES
    RDII ................... NO
    Snowmelt ............... NO
    Groundwater ............ NO
    Flow Routing ........... YES
    Ponding Allowed ........ NO
    Water Quality .......... NO
  Infiltration Method ...... HORTON
  Flow Routing Method ...... DYNWAVE
  Surcharge Method ......... EXTRAN
  Starting Date ............ 08/28/2015 08:00:00
  Ending Date .............. 08/28/2015 15:50:00
  Antecedent Dry Days ...... 8.0
  Report Time Step ......... 00:01:00
  Wet Time Step ............ 00:01:00
  Dry Time Step ............ 00:01:00
  Routing Time Step ........ 5.00 sec
  Variable Time Step ....... YES
  Maximum Trials ........... 8
  Number of Threads ........ 4
  Head Tolerance ........... 0.001500 m
  
  
  **************************        Volume         Depth
  Runoff Quantity Continuity     hectare-m            mm
  **************************     ---------       -------
  Total Precipitation ......         5.556        12.164
  Evaporation Loss .........         0.000         0.000
  Infiltration Loss ........         1.427         3.124
  Surface Runoff ...........         3.072         6.726
  Final Storage ............         1.058         2.316
  Continuity Error (%) .....        -0.016
  
  
  **************************        Volume        Volume
  Flow Routing Continuity        hectare-m      10^6 ltr
  **************************     ---------     ---------
  Dry Weather Inflow .......         0.616         6.165
  Wet Weather Inflow .......         3.071        30.709
  Groundwater Inflow .......         0.000         0.000
  RDII Inflow ..............         0.000         0.000
  External Inflow ..........         0.102         1.024
  External Outflow .........         2.255        22.555
  Flooding Loss ............         1.134        11.337
  Evaporation Loss .........         0.000         0.000
  Exfiltration Loss ........         0.000         0.000
  Initial Stored Volume ....         0.076         0.761
  Final Stored Volume ......         0.615         6.149
  Continuity Error (%) .....        -3.578
  
  
  *************************
  Highest Continuity Errors
  *************************
  Node HS02004842 (16.24%)
  Node JK-storage (-15.49%)
  Node YS02001884 (10.69%)
  Node YSB1171 (3.12%)
  Node HS02004817 (2.99%)
  
  
  ***************************
  Time-Step Critical Elements
  ***************************
  Link 3 (53.14%)
  Link WS02006252WS02006251 (37.82%)
  Link WS02006238WS02006235 (2.51%)
  Link WS02006280WS02006229 (1.25%)
  
  
  ********************************
  Highest Flow Instability Indexes
  ********************************
  Link YS02001619YS02001622 (41)
  Link YS02163301YS02001633 (40)
  Link YS02001629YS02163301 (40)
  Link YS02163601YS02164001 (40)
  Link YS02164001YS02001641 (36)
  
  
  *************************
  Routing Time Step Summary
  *************************
  Minimum Time Step           :     0.50 sec
  Average Time Step           :     0.77 sec
  Maximum Time Step           :     5.00 sec
  Percent in Steady State     :    -0.00
  Average Iterations per Step :     4.63
  Percent Not Converging      :    21.78
  
  
  ***************************
  Subcatchment Runoff Summary
  ***************************
  
  ------------------------------------------------------------------------------------------------------------------------------
                            Total      Total      Total      Total     Imperv       Perv      Total       Total     Peak  Runoff
                           Precip      Runon       Evap      Infil     Runoff     Runoff     Runoff      Runoff   Runoff   Coeff
  Subcatchment                 mm         mm         mm         mm         mm         mm         mm    10^6 ltr      LPS
  ------------------------------------------------------------------------------------------------------------------------------
  sub0                      12.16       0.00       0.00       0.85      10.05       0.00      10.05        0.01     1.91   0.826
  sub1                      12.16       0.00       0.00       1.34       9.56       0.00       9.56        0.06    14.15   0.786
  sub2                      12.16       0.00       0.00       4.50       6.75       0.00       6.75        0.06    13.75   0.555
  sub3                      12.16       0.00       0.00       4.50       6.71       0.00       6.71        0.15    32.07   0.552
  sub4                      12.16       0.00       0.00       1.34       9.40       0.00       9.40        0.20    40.20   0.773
  sub5                      12.16       0.00       0.00       0.85       9.99       0.00       9.99        0.11    25.19   0.822
  sub7                      12.16       0.00       0.00       1.09       9.81       0.00       9.81        0.03     7.55   0.807
  sub8                      12.16       0.00       0.00       1.09       9.80       0.00       9.80        0.06    14.17   0.806
  sub9                      12.16       0.00       0.00       1.09       9.80       0.00       9.80        0.05    10.64   0.806
  sub10                     12.16       0.00       0.00       0.97       9.89       0.00       9.89        0.11    24.40   0.813
  sub11                     12.16       0.00       0.00       0.97       9.91       0.00       9.91        0.12    26.15   0.815
  sub12                     12.16       0.00       0.00       1.58       9.39       0.00       9.39        0.08    19.06   0.772
  sub14                     12.16       0.00       0.00       1.09       9.80       0.00       9.80        0.09    21.02   0.805
  sub15                     12.16       0.00       0.00       3.65       7.53       0.00       7.53        0.13    29.11   0.619
  sub16                     12.16       0.00       0.00       4.01       7.23       0.00       7.23        0.08    17.47   0.594
  sub17                     12.16       0.00       0.00       3.89       7.34       0.00       7.34        0.06    14.47   0.603
  sub22                     12.16       0.00       0.00       5.23       6.14       0.00       6.14        0.39    88.27   0.505
  sub23                     12.16       0.00       0.00       4.50       6.79       0.00       6.79        0.32    73.89   0.558
  sub60                     12.16       0.00       0.00       1.46       7.71       0.00       7.71        2.34   297.17   0.634
  sub61                     12.16       0.00       0.00       2.07       7.87       0.00       7.87        2.43   359.80   0.647
  sub62                     12.16       0.00       0.00       0.97       8.55       0.00       8.55        2.63   372.87   0.703
  sub63                     12.16       0.00       0.00       3.53       6.89       0.00       6.89        2.09   327.80   0.567
  sub64                     12.16       0.00       0.00       1.82       7.40       0.00       7.40        2.25   282.66   0.608
  sub65                     12.16       0.00       0.00       1.58       7.52       0.00       7.52        2.31   287.20   0.618
  sub66                     12.16       0.00       0.00       3.53       6.36       0.00       6.36        1.95   257.27   0.523
  sub67                     12.16       0.00       0.00       0.97       9.05       0.00       9.05        2.79   452.90   0.744
  sub68                     12.16       0.00       0.00       1.70       8.28       0.00       8.28        2.55   391.99   0.681
  sub69                     12.16       0.00       0.00       1.82       8.61       0.00       8.61        2.01   355.79   0.708
  sub70                     12.16       8.79       0.00       7.03      11.43       0.10      11.53        2.64   335.00   0.550
  sub71                     12.16       0.00       0.00       0.97       8.31       0.00       8.31        1.96   263.63   0.683
  sub72                     12.16       0.00       0.00       0.85       6.56       0.00       6.56        1.34   129.40   0.540
  sub73                     12.16      11.23       0.00       7.88      12.47       0.08      12.54        2.95   300.52   0.536
  sub74                     12.16       0.00       0.00       9.12       2.57       0.00       2.57        1.03   189.59   0.211
  
  
  ******************
  Node Depth Summary
  ******************
  
  ---------------------------------------------------------------------------------
                                 Average  Maximum  Maximum  Time of Max    Reported
                                   Depth    Depth      HGL   Occurrence   Max Depth
  Node                 Type       Meters   Meters   Meters  days hr:min      Meters
  ---------------------------------------------------------------------------------
  WS02001211           JUNCTION     0.67     0.80     5.64     0  03:14        0.80
  WS02001212           JUNCTION     0.40     0.52     5.58     0  03:14        0.52
  WS02001213           JUNCTION     0.64     0.78     5.54     0  03:13        0.78
  WS02003069           JUNCTION     0.46     0.61     5.20     0  02:53        0.61
  WS02003072           JUNCTION     0.53     0.67     5.04     0  02:54        0.67
  WS02003073           JUNCTION     0.32     0.41     4.48     0  02:54        0.41
  WS02003060           JUNCTION     0.41     0.54     5.47     0  02:52        0.54
  WS02003066           JUNCTION     0.25     0.33     5.88     0  03:05        0.33
  WS02003059           JUNCTION     0.70     0.83     5.51     0  03:13        0.83
  WS02003067           JUNCTION     0.60     0.75     6.07     0  03:05        0.75
  WS02004401           JUNCTION     0.72     0.99     6.99     0  03:03        0.99
  WS02004402           JUNCTION     0.75     1.01     6.97     0  03:03        1.00
  WS02004403           JUNCTION     0.77     1.01     6.94     0  03:03        1.00
  WS02004404           JUNCTION     0.84     1.07     6.92     0  03:03        1.06
  WS02004406           JUNCTION     0.84     1.04     6.87     0  03:03        1.03
  WS02004409           JUNCTION     0.54     0.76     6.53     0  03:04        0.76
  WS02004410           JUNCTION     0.55     0.77     6.49     0  03:04        0.77
  WS02004411           JUNCTION     0.57     0.77     6.45     0  03:04        0.77
  WS02004412           JUNCTION     0.58     0.77     6.41     0  03:04        0.77
  WS02004413           JUNCTION     0.73     0.92     6.39     0  03:05        0.92
  WS02004405           JUNCTION     0.84     1.05     6.90     0  03:03        1.05
  WS02006109           JUNCTION     0.81     1.11     7.73     0  02:52        1.10
  WS02006110           JUNCTION     0.79     1.03     7.62     0  02:53        1.01
  WS02006111           JUNCTION     0.24     0.37     7.08     0  03:02        0.37
  WS02006112           JUNCTION     0.90     1.20     7.09     0  03:02        1.20
  WS02006113           JUNCTION     0.37     0.51     7.41     0  03:02        0.51
  WS02006115           JUNCTION     0.62     0.90     7.04     0  03:03        0.90
  WS02006116           JUNCTION     0.70     0.98     7.02     0  03:03        0.98
  WS02006230           JUNCTION     0.80     1.18     7.93     0  03:02        1.18
  WS02006231           JUNCTION     0.54     0.84     7.96     0  03:02        0.84
  WS02006232           JUNCTION     0.68     0.96     8.00     0  03:02        0.95
  WS02006234           JUNCTION     0.60     0.91     8.07     0  02:30        0.87
  WS02006235           JUNCTION     0.63     0.93     8.09     0  02:30        0.89
  WS02006238           JUNCTION     0.66     0.96     8.11     0  02:30        0.92
  WS02006240           JUNCTION     0.56     0.91     8.20     0  02:30        0.82
  WS02006242           JUNCTION     0.61     0.92     8.19     0  02:30        0.88
  WS02006243           JUNCTION     0.49     0.84     8.26     0  02:30        0.76
  WS02006245           JUNCTION     0.47     0.88     8.36     0  02:30        0.72
  WS02006247           JUNCTION     0.49     1.47     8.97     0  02:29        0.73
  WS02006248           JUNCTION     0.43     0.68     8.27     0  02:30        0.66
  WS02006249           JUNCTION     0.45     0.66     8.26     0  02:59        0.66
  WS02006239           JUNCTION     0.62     0.96     8.17     0  02:30        0.88
  WS02006251           JUNCTION     0.45     0.71     8.38     0  03:00        0.71
  WS02006252           JUNCTION     0.40     0.59     8.83     0  02:56        0.59
  WS02006253           JUNCTION     0.48     0.74     8.39     0  03:00        0.74
  WS02006256           JUNCTION     1.10     2.35     9.28     0  00:00        1.22
  WS02004138           JUNCTION     0.15     0.19     7.44     0  07:42        0.19
  WS02004407           JUNCTION     0.24     0.33     6.65     0  03:03        0.33
  WS02006228           JUNCTION     0.82     1.18     7.84     0  03:02        1.17
  WS02006229           JUNCTION     0.80     1.19     7.89     0  03:02        1.19
  WS02006280           JUNCTION     0.07     0.19     8.46     0  03:02        0.19
  WS02006284           JUNCTION     0.38     0.55     8.95     0  03:02        0.55
  WS02006287           JUNCTION     0.11     0.28     9.24     0  03:01        0.28
  WSF200               JUNCTION     0.24     0.36     5.59     0  03:07        0.36
  HS02004901           JUNCTION     0.13     0.28    10.10     0  03:01        0.28
  HS02004881           JUNCTION     0.01     0.04     9.07     0  03:01        0.04
  HS02004876           JUNCTION     0.05     0.12     9.15     0  03:01        0.12
  HS02004870           JUNCTION     0.02     0.06     9.35     0  03:01        0.06
  HS02004862           JUNCTION     0.02     0.07     9.46     0  03:01        0.07
  HS02004856           JUNCTION     0.08     0.13     9.55     0  03:01        0.13
  HS02004852           JUNCTION     0.01     0.05     9.56     0  03:01        0.05
  HS02004848           JUNCTION     0.01     0.05     9.65     0  03:01        0.05
  HS02004842           JUNCTION     0.33     0.38     9.65     0  03:01        0.38
  HS02004837           JUNCTION     0.03     0.07     9.65     0  03:01        0.07
  HS02004830           JUNCTION     0.04     0.08     9.55     0  03:01        0.08
  HS02004824           JUNCTION     0.03     0.06     9.46     0  03:01        0.06
  HS02004817           JUNCTION     0.45     0.60     9.44     0  03:01        0.60
  HS02004807           JUNCTION     0.13     0.27     9.44     0  03:01        0.27
  HS02004802           JUNCTION     0.17     0.30     9.43     0  03:01        0.30
  HS02004799           JUNCTION     0.13     0.33     9.54     0  03:01        0.33
  HS02004792           JUNCTION     0.04     0.14     9.66     0  03:01        0.14
  HS02004788           JUNCTION     0.03     0.10    10.00     0  03:01        0.10
  HS02004785           JUNCTION     0.05     0.17    10.07     0  03:01        0.17
  HS02004777           JUNCTION     0.16     0.30    10.10     0  03:01        0.30
  HS02004770           JUNCTION     0.13     0.27    10.10     0  03:01        0.27
  HS02004480           JUNCTION     0.09     0.26     9.50     0  03:01        0.26
  HS02004479           JUNCTION     0.13     0.30     9.50     0  03:01        0.30
  HS02004478           JUNCTION     0.07     0.18     9.41     0  03:01        0.18
  YS02001745           JUNCTION     0.68     0.88     8.40     0  03:29        0.88
  YS02001748           JUNCTION     1.07     2.27     9.35     0  02:43        1.85
  YS02001751           JUNCTION     1.26     2.17     9.05     0  02:36        1.88
  YS02001754           JUNCTION     1.51     2.11     8.71     0  02:36        1.98
  YS02001762           JUNCTION     1.71     2.04     8.44     0  02:44        2.02
  YS02001765           JUNCTION     1.67     1.99     8.44     0  02:44        1.97
  YS02001767           JUNCTION     1.63     1.94     8.43     0  02:44        1.93
  YS02001770           JUNCTION     1.63     1.95     8.44     0  02:44        1.90
  YS02001774           JUNCTION     1.70     2.01     8.44     0  02:44        1.97
  YS02001779           JUNCTION     1.44     1.68     8.37     0  02:43        1.68
  YS02001882           JUNCTION     0.54     1.62     8.33     0  02:52        1.60
  YS02001884           JUNCTION     0.64     1.71     8.33     0  02:52        1.70
  YS02001759           JUNCTION     1.75     2.07     8.44     0  02:44        2.06
  YS02001887           JUNCTION     0.71     1.79     8.33     0  02:52        1.78
  YS02001890           JUNCTION     0.74     1.81     8.32     0  02:52        1.80
  YS02001898           JUNCTION     0.51     1.56     8.29     0  02:52        1.55
  YS02001901           JUNCTION     0.63     1.67     8.28     0  02:52        1.66
  YS02001904           JUNCTION     0.61     1.64     8.27     0  02:52        1.63
  YS02001907           JUNCTION     0.94     1.96     8.25     0  02:52        1.96
  YS02001910           JUNCTION     0.73     1.78     8.28     0  02:54        1.76
  YS02001915           JUNCTION     0.52     1.59     8.31     0  02:53        1.58
  YS02001918           JUNCTION     0.27     1.27     8.33     0  02:53        1.24
  YS02001619           JUNCTION     1.23     1.61     8.54     0  02:39        1.60
  YS02001629           JUNCTION     1.58     1.85     8.40     0  02:39        1.85
  YS02001641           JUNCTION     1.68     1.96     8.40     0  02:44        1.96
  YS02001644           JUNCTION     1.68     1.92     8.35     0  02:43        1.92
  YS02001652           JUNCTION     1.53     2.16     8.76     0  02:56        1.89
  YS02001655           JUNCTION     1.29     2.20     9.05     0  02:40        1.78
  YS02001920           JUNCTION     0.37     1.34     8.35     0  02:53        1.31
  YS02001923           JUNCTION     0.21     1.10     8.36     0  02:53        1.07
  YS02001926           JUNCTION     0.27     0.91     8.36     0  02:53        0.91
  YS02001929           JUNCTION     0.15     0.70     8.39     0  02:54        0.69
  YS02001658           JUNCTION     1.02     2.30     9.44     0  02:40        1.66
  YS02001661           JUNCTION     0.79     2.46     9.86     0  02:58        1.60
  YS02001664           JUNCTION     0.34     0.57     8.49     0  02:56        0.56
  YS02001622           JUNCTION     1.25     1.62     8.52     0  02:39        1.53
  YS02001633           JUNCTION     1.67     1.99     8.44     0  02:43        1.95
  YS02001649           JUNCTION     1.72     2.05     8.44     0  02:43        2.05
  YS02001757           JUNCTION     1.85     2.18     8.44     0  02:43        2.16
  YS02001895           JUNCTION     0.50     1.56     8.31     0  02:52        1.55
  YS02001625           JUNCTION     1.53     1.78     8.38     0  02:39        1.78
  YS02163301           JUNCTION     1.61     1.91     8.43     0  02:43        1.89
  YS02163601           JUNCTION     1.72     2.04     8.44     0  02:43        2.01
  YS02164001           JUNCTION     1.66     1.97     8.43     0  02:44        1.95
  YS02001647           JUNCTION     1.51     1.84     8.45     0  02:43        1.79
  YSB1154              JUNCTION     0.27     0.45     9.51     0  03:01        0.45
  YSB6556              JUNCTION     0.16     0.34     9.51     0  03:01        0.34
  YSB1174              JUNCTION     0.22     0.40     9.51     0  03:01        0.40
  YSB1171              JUNCTION     0.42     0.60     9.51     0  03:01        0.60
  YS02006553           JUNCTION     0.94     1.96     8.25     0  02:59        1.96
  YS02006561           JUNCTION     0.31     1.08     7.74     0  03:00        1.07
  YS02006556           JUNCTION     0.91     1.92     8.23     0  03:00        1.92
  YS02006558           JUNCTION     0.95     1.96     8.22     0  02:59        1.95
  YS02001783           JUNCTION     0.53     1.69     7.84     0  02:39        1.47
  YS02001784           JUNCTION     0.54     1.77     7.84     0  02:39        1.40
  YS02001786           JUNCTION     0.48     1.73     7.76     0  02:39        1.25
  YS02001788           JUNCTION     0.41     2.22     8.19     0  02:39        1.12
  YS02001790           JUNCTION     0.51     1.96     7.60     0  02:38        1.29
  YS02001791           JUNCTION     0.46     1.71     7.18     0  02:39        1.27
  YS02001793           JUNCTION     0.59     2.04     6.88     0  02:39        1.80
  WS02004139           JUNCTION     0.62     0.75     5.66     0  03:15        0.75
  WSC                  OUTFALL      0.32     0.41     1.08     0  02:55        0.41
  3                    OUTFALL      0.13     0.23     6.23     0  00:00        0.21
  4                    OUTFALL      0.04     0.16     7.16     0  02:59        0.16
  5                    OUTFALL      0.00     0.00     5.00     0  00:00        0.00
  JK-storage           STORAGE      2.11     5.80     6.60     0  02:39        5.80
  CC-storage           STORAGE      1.06     1.39     8.39     0  03:26        1.39
  XR-storage           STORAGE      6.83     7.72     5.72     0  02:56        7.72
  
  
  *******************
  Node Inflow Summary
  *******************
  
  -------------------------------------------------------------------------------------------------
                                  Maximum  Maximum                  Lateral       Total        Flow
                                  Lateral    Total  Time of Max      Inflow      Inflow     Balance
                                   Inflow   Inflow   Occurrence      Volume      Volume       Error
  Node                 Type           LPS      LPS  days hr:min    10^6 ltr    10^6 ltr     Percent
  -------------------------------------------------------------------------------------------------
  WS02001211           JUNCTION      7.35   388.87     0  03:19       0.207        7.32       0.574
  WS02001212           JUNCTION      0.00   390.34     0  03:20           0        7.28       0.327
  WS02001213           JUNCTION      0.00   391.65     0  03:19           0        7.25       0.389
  WS02003069           JUNCTION      0.32  1020.28     0  02:53     0.00902        16.2       0.230
  WS02003072           JUNCTION      0.00  1020.07     0  02:53           0        16.2       0.271
  WS02003073           JUNCTION      1.82  1022.18     0  02:54      0.0514        16.2       0.313
  WS02003060           JUNCTION     16.53  1019.40     0  02:52       0.466        16.2       0.217
  WS02003066           JUNCTION      0.00   673.47     0  03:05           0        8.57       0.059
  WS02003059           JUNCTION      0.00   393.58     0  03:19           0        7.23       0.586
  WS02003067           JUNCTION      0.00   673.29     0  03:05           0        8.59       0.120
  WS02004401           JUNCTION      0.00   676.21     0  03:03           0        8.85       0.273
  WS02004402           JUNCTION      0.00   674.88     0  03:03           0        8.82       0.254
  WS02004403           JUNCTION      0.00   675.18     0  03:03           0         8.8       0.228
  WS02004404           JUNCTION      0.16   675.29     0  03:03     0.00457        8.78       0.168
  WS02004406           JUNCTION      0.00   675.78     0  03:03           0        8.75       0.410
  WS02004409           JUNCTION      0.00   675.05     0  03:03           0         8.7       0.224
  WS02004410           JUNCTION      0.00   674.50     0  03:04           0        8.68       0.249
  WS02004411           JUNCTION      0.00   674.08     0  03:04           0        8.66       0.251
  WS02004412           JUNCTION      0.00   673.71     0  03:04           0        8.64       0.267
  WS02004413           JUNCTION      0.00   673.57     0  03:04           0        8.62       0.388
  WS02004405           JUNCTION      0.04   675.45     0  03:03     0.00107        8.77       0.254
  WS02006109           JUNCTION      1.23   664.58     0  03:02      0.0347        8.92       0.261
  WS02006110           JUNCTION      0.00   664.49     0  03:02           0         8.9       0.246
  WS02006111           JUNCTION      0.00   699.03     0  03:02           0        8.87       0.059
  WS02006112           JUNCTION     14.47   679.40     0  03:02      0.0629        8.92       0.344
  WS02006113           JUNCTION      0.00   665.54     0  03:02           0        8.88       0.132
  WS02006115           JUNCTION      0.00   679.54     0  03:02           0        8.89       0.270
  WS02006116           JUNCTION      0.00   678.98     0  03:03           0        8.87       0.256
  WS02006230           JUNCTION     10.28   402.59     0  04:58        0.29        7.04       0.204
  WS02006231           JUNCTION      0.00   392.36     0  04:52           0        6.77       0.235
  WS02006232           JUNCTION      0.00   392.45     0  04:23           0        6.79       0.263
  WS02006234           JUNCTION      0.00   395.66     0  04:23           0         6.8       0.152
  WS02006235           JUNCTION      0.00   398.60     0  04:22           0        6.84       0.181
  WS02006238           JUNCTION      0.00   314.70     0  07:50           0        4.73       0.195
  WS02006240           JUNCTION      0.00   315.73     0  07:42           0        4.73       0.338
  WS02006242           JUNCTION      0.00   318.92     0  04:21           0        4.74       0.395
  WS02006243           JUNCTION      0.00   333.55     0  04:21           0        4.74       0.088
  WS02006245           JUNCTION      0.00   339.07     0  04:21           0        4.76       0.293
  WS02006247           JUNCTION      0.00   346.97     0  04:21           0        4.77       0.223
  WS02006248           JUNCTION      0.00   353.26     0  04:20           0        4.77       0.144
  WS02006249           JUNCTION      0.00   479.88     0  03:00           0        5.62       0.283
  WS02006239           JUNCTION      0.00   314.77     0  07:43           0        4.73       0.311
  WS02006251           JUNCTION      0.08   480.03     0  02:59     0.00217        5.65       0.252
  WS02006252           JUNCTION      0.00   400.00     0  02:50           0        5.27       0.010
  WS02006253           JUNCTION      1.91    81.00     0  03:01     0.00814       0.386       2.221
  WS02006256           JUNCTION      0.00   600.00     0  00:00           0        7.75       0.029
  WS02004138           JUNCTION      0.00   380.00     0  03:10           0        7.15       0.078
  WS02004407           JUNCTION      0.00   675.51     0  03:03           0        8.71       0.101
  WS02006228           JUNCTION      0.00   663.30     0  03:02           0         8.9       0.188
  WS02006229           JUNCTION      0.00   662.29     0  03:02           0        8.92       0.137
  WS02006280           JUNCTION      0.00   375.54     0  03:02           0        1.89       0.004
  WS02006284           JUNCTION      0.10   375.53     0  03:02      0.0027        1.89       0.064
  WS02006287           JUNCTION      0.00   375.26     0  03:01           0        1.89       0.037
  WSF200               JUNCTION      0.00   673.51     0  03:05           0        8.57       0.058
  HS02004901           JUNCTION     17.47    17.47     0  03:01      0.0757      0.0759       2.380
  HS02004881           JUNCTION      7.55    79.19     0  03:01      0.0331       0.357       0.059
  HS02004876           JUNCTION     14.15    72.10     0  03:01      0.0636       0.324       0.171
  HS02004870           JUNCTION     14.17    58.27     0  03:01      0.0626       0.261       0.043
  HS02004862           JUNCTION     13.95    44.46     0  03:01      0.0685       0.198       0.089
  HS02004856           JUNCTION     10.64    30.79     0  03:01      0.0471       0.131       1.115
  HS02004852           JUNCTION      0.00    20.44     0  03:01           0       0.084       0.069
  HS02004848           JUNCTION     32.07    32.07     0  03:01       0.151       0.151       0.033
  HS02004842           JUNCTION      0.00    11.42     0  03:01           0      0.0801      19.388
  HS02004837           JUNCTION     30.75    41.91     0  03:01       0.288       0.355       0.230
  HS02004830           JUNCTION      0.15    41.84     0  03:01     0.00423       0.346       0.358
  HS02004824           JUNCTION     40.25    81.79     0  03:01       0.197       0.542       0.100
  HS02004817           JUNCTION      0.60    82.18     0  03:01      0.0169       0.558       3.079
  HS02004807           JUNCTION     26.15   107.25     0  03:01       0.115       0.657       0.656
  HS02004802           JUNCTION      0.00   106.49     0  03:01           0       0.653       0.620
  HS02004799           JUNCTION     21.02   227.51     0  03:01      0.0932        1.06       0.236
  HS02004792           JUNCTION     88.55   207.33     0  03:01       0.396       0.966       0.043
  HS02004788           JUNCTION     30.78   119.37     0  03:01       0.177       0.571       0.068
  HS02004785           JUNCTION      0.15    89.79     0  03:01     0.00423       0.396       0.125
  HS02004777           JUNCTION      0.03    90.24     0  03:01    0.000846       0.397       1.326
  HS02004770           JUNCTION     73.89    90.93     0  03:01       0.324       0.398       0.787
  HS02004480           JUNCTION      0.00   269.27     0  03:01           0        1.25       0.099
  HS02004479           JUNCTION      0.00    42.82     0  03:02           0       0.204       0.361
  HS02004478           JUNCTION      0.00   375.16     0  03:01           0        1.89       0.018
  YS02001745           JUNCTION    297.18   335.19     0  02:42        2.34        2.34       0.395
  YS02001748           JUNCTION      0.04   527.52     0  02:43     0.00127        2.34       0.995
  YS02001751           JUNCTION      0.01   382.99     0  02:32     0.00031        2.31       1.026
  YS02001754           JUNCTION      0.26   309.69     0  03:00     0.00733        2.29       1.085
  YS02001762           JUNCTION      0.00   343.60     0  02:56           0        1.85       1.145
  YS02001765           JUNCTION      0.00   343.54     0  02:56           0        1.85       1.322
  YS02001767           JUNCTION      0.54   343.62     0  02:56      0.0151        1.88       1.941
  YS02001770           JUNCTION    373.02   373.02     0  03:01        2.63        2.77       1.164
  YS02001774           JUNCTION      0.00   348.95     0  03:30           0        1.02       2.533
  YS02001779           JUNCTION      0.01   349.21     0  03:30    0.000141       0.987       1.598
  YS02001882           JUNCTION      0.00    25.12     0  02:41           0       0.021      11.955
  YS02001884           JUNCTION      0.00    52.25     0  02:41           0      0.0567      11.972
  YS02001759           JUNCTION    359.84   675.28     0  02:56        2.43        4.11       0.559
  YS02001887           JUNCTION    453.35   453.38     0  03:01         2.8        2.83       0.298
  YS02001890           JUNCTION      0.00   453.49     0  03:01           0        2.79       0.332
  YS02001898           JUNCTION      0.00   453.67     0  03:01           0        2.77       0.113
  YS02001901           JUNCTION      0.00   453.77     0  03:01           0        2.77       0.251
  YS02001904           JUNCTION      0.00   453.69     0  03:01           0        2.77       0.228
  YS02001907           JUNCTION      0.00   874.94     0  02:59           0        6.12       0.395
  YS02001910           JUNCTION      0.00   454.11     0  02:54           0        3.37       0.347
  YS02001915           JUNCTION    263.65   453.91     0  02:54        1.96        3.39       0.181
  YS02001918           JUNCTION      0.00   218.26     0  02:54           0        1.44       0.126
  YS02001619           JUNCTION    257.27   257.27     0  03:01        1.95        1.95       0.628
  YS02001629           JUNCTION      0.00   209.26     0  02:50           0        1.63       1.788
  YS02001641           JUNCTION      0.00   441.17     0  02:50           0        3.85       0.549
  YS02001644           JUNCTION    282.70  1054.84     0  03:28        2.25        7.75       0.338
  YS02001652           JUNCTION      0.00   372.80     0  03:00           0        2.04       1.150
  YS02001655           JUNCTION      0.15   373.19     0  03:00     0.00434        2.07       1.229
  YS02001920           JUNCTION      2.87   218.25     0  02:54      0.0809        1.43       0.208
  YS02001923           JUNCTION      0.04   219.18     0  02:55     0.00106        1.34       0.048
  YS02001926           JUNCTION      0.05   178.06     0  02:55     0.00147        1.34       0.250
  YS02001929           JUNCTION    129.40   129.40     0  03:01        1.34        1.34       0.040
  YS02001658           JUNCTION      0.00   581.63     0  02:40           0        2.09       1.064
  YS02001661           JUNCTION      0.00   691.53     0  02:56           0        2.82      -0.268
  YS02001664           JUNCTION    327.80   356.71     0  02:53        2.09        2.83       0.192
  YS02001622           JUNCTION      0.00   257.47     0  03:01           0        1.94       1.662
  YS02001633           JUNCTION    287.40   441.23     0  02:50        2.32         3.9       0.830
  YS02001649           JUNCTION      0.00   940.41     0  02:51           0         5.1       0.734
  YS02001757           JUNCTION      0.00  1789.84     0  02:51           0        9.56       0.974
  YS02001895           JUNCTION      0.00   453.52     0  03:01           0        2.78       0.178
  YS02001625           JUNCTION      0.00   257.40     0  03:01           0         1.9       2.054
  YS02163301           JUNCTION      0.00   209.26     0  02:50           0        1.61       1.506
  YS02163601           JUNCTION      0.11   441.34     0  02:50      0.0031        3.87       0.783
  YS02164001           JUNCTION      0.00   441.31     0  02:50           0        3.85       0.522
  YS02001647           JUNCTION      0.00   669.65     0  02:50           0        3.88       0.732
  YSB1154              JUNCTION     25.19    25.19     0  03:01       0.113       0.114       1.286
  YSB6556              JUNCTION      0.00    24.91     0  03:01           0       0.115       1.100
  YSB1174              JUNCTION     19.06    19.06     0  03:01      0.0821      0.0827       1.581
  YSB1171              JUNCTION      0.00    43.19     0  03:01           0       0.203       3.219
  YS02006553           JUNCTION      0.00   666.62     0  03:17           0         5.9       0.258
  YS02006561           JUNCTION      0.00   964.18     0  03:00           0        8.42       0.008
  YS02006556           JUNCTION      0.00   666.64     0  03:17           0         5.9       0.190
  YS02006558           JUNCTION    392.87   964.38     0  03:00        2.57        8.45       0.064
  YS02001783           JUNCTION      0.00   964.17     0  03:00           0        8.42       0.028
  YS02001784           JUNCTION      1.06   965.24     0  03:00      0.0299        8.45       0.044
  YS02001786           JUNCTION      0.06   965.17     0  03:00     0.00159        8.44       0.040
  YS02001788           JUNCTION      0.07   965.21     0  03:00       0.002        8.44       0.025
  YS02001790           JUNCTION      0.15   965.40     0  03:00     0.00437        8.44       0.030
  YS02001791           JUNCTION      0.00   965.45     0  03:00           0        8.44       0.014
  YS02001793           JUNCTION      0.00   965.46     0  03:00           0        8.44       0.005
  WS02004139           JUNCTION      0.32   380.32     0  07:42     0.00905        7.16       0.627
  WSC                  OUTFALL       0.00  1022.48     0  02:55           0        16.1       0.000
  3                    OUTFALL       0.00   597.65     0  00:00           0        5.62       0.000
  4                    OUTFALL       0.00   233.20     0  02:59           0       0.829       0.000
  5                    OUTFALL       0.00     0.00     0  00:00           0           0       0.000 ltr
  JK-storage           STORAGE       0.00   965.62     0  03:00           0        8.59     -13.413
  CC-storage           STORAGE       0.00  1789.56     0  02:51           0        8.56       0.548
  XR-storage           STORAGE     690.11   690.11     0  03:01        9.61        10.2      -0.001
  
  
  **********************
  Node Surcharge Summary
  **********************
  
  Surcharging occurs when water rises above the top of the highest conduit.
  ---------------------------------------------------------------------
                                               Max. Height   Min. Depth
                                   Hours       Above Crown    Below Rim
  Node                 Type      Surcharged         Meters       Meters
  ---------------------------------------------------------------------
  WS02004402           JUNCTION        0.02          0.005        1.735
  WS02004403           JUNCTION        0.07          0.006        2.024
  WS02004404           JUNCTION        0.66          0.067        2.713
  WS02004406           JUNCTION        0.42          0.037        2.413
  WS02004405           JUNCTION        0.62          0.054        2.746
  WS02006109           JUNCTION        2.85          0.293        1.527
  WS02006110           JUNCTION        1.01          0.124        1.726
  WS02006112           JUNCTION        1.22          0.205        1.475
  WS02006230           JUNCTION        0.66          0.104        1.466
  WS02006231           JUNCTION        0.70          0.132        1.398
  WS02006232           JUNCTION        3.00          0.264        1.216
  WS02006234           JUNCTION        0.85          0.194        1.046
  WS02006235           JUNCTION        2.10          0.219        1.071
  WS02006238           JUNCTION        2.54          0.242        1.188
  WS02006240           JUNCTION        0.72          0.199        1.191
  WS02006242           JUNCTION        2.02          0.189        0.631
  WS02006243           JUNCTION        0.48          0.127        0.643
  WS02006245           JUNCTION        0.24          0.166        0.684
  WS02006247           JUNCTION        0.25          0.760        0.000
  WS02006239           JUNCTION        1.35          0.224        1.066
  WS02006252           JUNCTION        2.70          0.193        0.907
  WS02006256           JUNCTION        0.01          1.050        0.000
  WS02006228           JUNCTION        2.73          0.354        1.846
  YS02001748           JUNCTION        5.05          1.190        0.000
  YS02001751           JUNCTION        5.21          1.169        0.031
  YS02001754           JUNCTION        5.41          1.055        0.095
  YS02001762           JUNCTION        5.64          1.042        0.108
  YS02001765           JUNCTION        5.61          0.987        0.113
  YS02001767           JUNCTION        5.58          0.937        0.093
  YS02001770           JUNCTION        5.57          0.920        0.000
  YS02001774           JUNCTION        5.63          1.013        0.037
  YS02001779           JUNCTION        5.41          0.680        0.000
  YS02001882           JUNCTION        0.79          0.617        0.213
  YS02001884           JUNCTION        0.83          0.654        0.216
  YS02001759           JUNCTION        5.66          1.074        0.136
  YS02001887           JUNCTION        0.91          0.740        0.210
  YS02001890           JUNCTION        0.94          0.760        0.000
  YS02001898           JUNCTION        0.74          0.527        0.213
  YS02001901           JUNCTION        0.87          0.671        0.199
  YS02001904           JUNCTION        0.85          0.636        0.214
  YS02001907           JUNCTION        1.50          0.950        0.000
  YS02001910           JUNCTION        0.99          0.777        0.323
  YS02001915           JUNCTION        0.77          0.587        0.413
  YS02001918           JUNCTION        0.52          0.265        0.545
  YS02001619           JUNCTION        5.22          0.610        0.000
  YS02001629           JUNCTION        5.23          0.470        0.000
  YS02001641           JUNCTION        5.62          0.963        0.137
  YS02001644           JUNCTION        5.62          0.920        0.000
  YS02001652           JUNCTION        5.44          1.130        0.000
  YS02001655           JUNCTION        5.25          1.200        0.000
  YS02001920           JUNCTION        0.56          0.340        0.800
  YS02001658           JUNCTION        5.08          1.300        0.000
  YS02001661           JUNCTION        0.23          1.390        0.000
  YS02001622           JUNCTION        5.26          0.620        0.000
  YS02001633           JUNCTION        5.60          0.966        0.094
  YS02001649           JUNCTION        5.64          1.050        0.000
  YS02001757           JUNCTION        5.74          1.178        0.032
  YS02001895           JUNCTION        0.76          0.558        0.192
  YS02001625           JUNCTION        5.52          0.780        0.000
  YS02163301           JUNCTION        5.58          0.911        0.119
  YS02163601           JUNCTION        5.64          1.042        0.038
  YS02164001           JUNCTION        5.61          0.971        0.129
  YS02001647           JUNCTION        5.45          0.838        0.062
  YS02006553           JUNCTION        1.56          0.964        0.226
  YS02006561           JUNCTION        0.66          0.281        0.869
  YS02006556           JUNCTION        1.20          0.879        0.471
  YS02006558           JUNCTION        1.15          0.857        0.543
  YS02001783           JUNCTION        1.24          0.894        0.706
  YS02001784           JUNCTION        1.30          0.974        0.516
  YS02001786           JUNCTION        1.25          0.925        0.505
  YS02001788           JUNCTION        1.24          1.417        0.063
  YS02001790           JUNCTION        1.70          1.157        0.000
  YS02001791           JUNCTION        1.73          0.906        1.014
  YS02001793           JUNCTION        1.82          1.044        1.556
  
  
  *********************
  Node Flooding Summary
  *********************
  
  Flooding refers to all water that overflows a node, whether it ponds or not.
  --------------------------------------------------------------------------
                                                             Total   Maximum
                                 Maximum   Time of Max       Flood    Ponded
                        Hours       Rate    Occurrence      Volume     Depth
  Node                 Flooded       LPS   days hr:min    10^6 ltr    Meters
  --------------------------------------------------------------------------
  WS02006247              0.01     71.55      0  02:29       0.000     0.000
  WS02006256              0.01    406.11      0  00:00       0.001     0.000
  YS02001748              0.01    138.19      0  02:44       0.000     0.000
  YS02001770              0.01      3.68      0  02:44       0.000     0.000
  YS02001779              2.33    349.09      0  03:30       0.967     0.000
  YS02001890              0.01      0.09      0  02:52       0.000     0.000
  YS02001907              0.39    292.88      0  02:59       0.209     0.000
  YS02001619              0.01     33.32      0  02:39       0.000     0.000
  YS02001629              0.01     31.43      0  02:40       0.000     0.000
  YS02001644              3.81   1054.45      0  03:28       5.512     0.000
  YS02001652              0.01     23.39      0  03:05       0.000     0.000
  YS02001655              0.01     22.61      0  03:10       0.000     0.000
  YS02001658              0.01    140.46      0  02:40       0.000     0.000
  YS02001661              0.01    187.56      0  03:05       0.002     0.000
  YS02001622              0.01     20.12      0  02:39       0.000     0.000
  YS02001649              0.08     52.79      0  03:09       0.005     0.000
  YS02001625              0.84    168.50      0  03:01       0.234     0.000
  YS02001790              0.01    100.54      0  02:38       0.000     0.000
  JK-storage              1.49    762.04      0  03:40       2.170     0.000
  XR-storage              3.60    490.50      0  03:00       2.236     0.000
  
  
  **********************
  Storage Volume Summary
  **********************
  
  --------------------------------------------------------------------------------------------------
                         Average     Avg  Evap Exfil       Maximum     Max    Time of Max    Maximum
                          Volume    Pcnt  Pcnt  Pcnt        Volume    Pcnt     Occurrence    Outflow
  Storage Unit           1000 m3    Full  Loss  Loss       1000 m3    Full    days hr:min        LPS
  --------------------------------------------------------------------------------------------------
  JK-storage               0.106      36     0     0         0.291     100       0  02:39     600.00
  CC-storage               2.954      19     0     0         3.880      25       0  03:26     400.00
  XR-storage               0.820      88     0     0         0.926     100       0  02:56     380.00
  
  
  ***********************
  Outfall Loading Summary
  ***********************
  
  -----------------------------------------------------------
                         Flow       Avg       Max       Total
                         Freq      Flow      Flow      Volume
  Outfall Node           Pcnt       LPS       LPS    10^6 ltr
  -----------------------------------------------------------
  WSC                   99.99    647.53   1022.48      16.109
  3                     94.04    284.48    597.65       5.617
  4                     45.42     86.25    233.20       0.829
  5                      0.00      0.00      0.00       0.000
  -----------------------------------------------------------
  System                59.86   1018.26   1685.07      22.554
  
  
  ********************
  Link Flow Summary
  ********************
  
  -----------------------------------------------------------------------------
                                 Maximum  Time of Max   Maximum    Max/    Max/
                                  |Flow|   Occurrence   |Veloc|    Full    Full
  Link                 Type          LPS  days hr:min     m/sec    Flow   Depth
  -----------------------------------------------------------------------------
  WS02003066WSF200     CONDUIT    673.51     0  03:05      2.86    0.11    0.26
  WS02006287WS02006284 CONDUIT    375.44     0  03:02      1.98    0.17    0.29
  WS02006284WS02006280 CONDUIT    375.54     0  03:02      2.22    0.16    0.27
  WS02006280WS02006229 CONDUIT    375.57     0  03:02      3.58    0.08    0.19
  WS02006229WS02006228 CONDUIT    663.30     0  03:02      1.32    2.20    1.00
  WS02006256WS02006235 CONDUIT    177.52     0  00:01      2.73    1.88    1.00
  WS02006253WS02006251 CONDUIT     88.00     0  02:31      0.46    0.26    1.00
  WS02006252WS02006251 CONDUIT    400.48     0  07:48      3.19    1.47    1.00
  WS02006251WS02006249 CONDUIT    479.88     0  03:00      1.26    1.38    0.97
  WS02006249WS02006248 CONDUIT    353.26     0  04:20      1.15    1.94    0.93
  WS02006248WS02006247 CONDUIT    346.97     0  04:21      1.11    0.76    0.97
  WS02006247WS02006245 CONDUIT    339.07     0  04:21      1.06    2.69    1.00
  WS02006245WS02006243 CONDUIT    333.55     0  04:21      1.06    0.99    1.00
  WS02006243WS02006242 CONDUIT    318.92     0  04:21      0.92    0.68    1.00
  WS02006242WS02006240 CONDUIT    315.73     0  07:42      0.83    1.25    1.00
  WS02006240WS02006239 CONDUIT    314.77     0  07:43      0.87    0.99    1.00
  WS02006239WS02006238 CONDUIT    314.70     0  07:50      0.85    1.01    1.00
  WS02006238WS02006235 CONDUIT    314.70     0  07:50      1.32    0.70    1.00
  WS02006235WS02006234 CONDUIT    395.66     0  04:23      1.04    4.17    1.00
  WS02006234WS02006232 CONDUIT    392.45     0  04:23      1.17    0.79    1.00
  WS02006232WS02006231 CONDUIT    392.36     0  04:52      1.07    0.82    1.00
  WS02006231WS02006230 CONDUIT    392.31     0  04:58      1.33    5.95    1.00
  WS02006230WS02006229 CONDUIT    402.63     0  04:59      1.05    8.96    1.00
  WS02006228WS02006109 CONDUIT    663.35     0  03:02      1.32    2.90    1.00
  WS02006116WS02004401 CONDUIT    676.21     0  03:03      0.86    0.93    0.98
  WS02006115WS02006116 CONDUIT    678.98     0  03:03      0.90    0.87    0.91
  WS02006113WS02006111 CONDUIT    699.03     0  03:02      2.59    0.84    0.55
  WS02006112WS02006115 CONDUIT    679.54     0  03:02      0.88    0.40    0.95
  WS02006111WS02006112 CONDUIT    667.96     0  03:02      1.71    0.32    0.73
  WS02006110WS02006113 CONDUIT    665.54     0  03:02      1.52    0.61    0.82
  WS02006109WS02006110 CONDUIT    664.49     0  03:02      1.32    1.28    1.00
  WS02004411WS02004412 CONDUIT    673.71     0  03:04      1.04    0.96    0.77
  WS02004401WS02004402 CONDUIT    674.88     0  03:03      0.86    0.81    1.00
  WS02004413WS02003067 CONDUIT    673.29     0  03:05      1.26    0.29    0.64
  WS02004412WS02004413 CONDUIT    673.57     0  03:04      0.95    0.45    0.84
  WS02004410WS02004411 CONDUIT    674.08     0  03:04      1.04    0.92    0.77
  WS02004409WS02004410 CONDUIT    674.50     0  03:04      1.05    0.87    0.76
  WS02004407WS02004409 CONDUIT    675.05     0  03:03      1.54    0.24    0.55
  WS02004406WS02004407 CONDUIT    675.51     0  03:03      1.22    0.30    0.67
  WS02004405WS02004406 CONDUIT    675.78     0  03:03      0.86    1.33    1.00
  WS02004404WS02004405 CONDUIT    675.41     0  03:03      0.86    6.62    1.00
  WS02004403WS02004404 CONDUIT    675.13     0  03:03      0.86    0.49    1.00
  WS02004402WS02004403 CONDUIT    675.18     0  03:03      0.86    0.97    1.00
  WS02004139WS02001211 CONDUIT    381.52     0  03:19      0.80    0.48    0.60
  WS02004138WS02004139 CONDUIT    380.00     0  07:42      3.34    0.08    0.44
  WS02003067WS02003066 CONDUIT    673.47     0  03:05      1.37    0.22    0.45
  WS02001213WS02003059 CONDUIT    393.58     0  03:19      0.80    0.65    0.79
  WS02001212WS02001213 CONDUIT    391.65     0  03:19      1.31    0.60    0.49
  WS02001211WS02001212 CONDUIT    390.34     0  03:20      0.77    0.30    0.66
  WS02003072WS02003073 CONDUIT   1020.36     0  02:54      1.78    2.20    0.51
  WS02003069WS02003072 CONDUIT   1020.07     0  02:53      1.67    0.49    0.53
  WS02003060WS02003069 CONDUIT   1019.96     0  02:53      1.90    0.40    0.48
  WS02003059WS02003060 CONDUIT    396.00     0  03:18      0.93    0.26    0.68
  HS02004901HS02004770 CONDUIT     17.70     0  03:01      0.07    0.07    0.39
  HS02004876HS02004881 CONDUIT     71.90     0  03:01      0.92    0.76    0.11
  HS02004870HS02004876 CONDUIT     58.03     0  03:01      0.63    0.04    0.13
  HS02004842HS02004848 CONDUIT     11.42     0  03:01      0.05    0.01    0.30
  HS02004837HS02004842 CONDUIT     11.94     0  03:02      0.41    0.01    0.32
  HS02004830HS02004837 CONDUIT     41.69     0  03:01      0.56    0.04    0.11
  HS02004824HS02004830 CONDUIT     41.67     0  03:01      0.58    0.05    0.10
  HS02004817HS02004824 CONDUIT     81.58     0  03:01      0.25    0.04    0.47
  HS02004770HS02004777 CONDUIT     90.21     0  03:01      0.32    0.16    0.41
  HS02004799HS02004480 CONDUIT    226.97     0  03:01      0.78    0.29    0.42
  HS02004792HS02004799 CONDUIT    206.60     0  03:01      0.88    0.13    0.33
  HS02004788HS02004792 CONDUIT    118.94     0  03:01      1.01    0.08    0.17
  HS02004785HS02004788 CONDUIT     89.52     0  03:02      0.66    0.67    0.19
  HS02004777HS02004785 CONDUIT     89.64     0  03:01      0.38    0.11    0.33
  HS02004480HS02004478 CONDUIT    269.12     0  03:01      1.20    1.13    0.32
  HS02004479HS02004480 CONDUIT     44.17     0  03:02      0.23    0.04    0.40
  HS02004862HS02004870 CONDUIT     44.23     0  03:01      0.64    0.05    0.10
  HS02004848HS02004852 CONDUIT     20.44     0  03:01      0.44    0.02    0.07
  HS02004856HS02004862 CONDUIT     30.56     0  03:01      0.47    0.03    0.09
  HS02004852HS02004856 CONDUIT     20.26     0  03:01      0.24    0.02    0.12
  HS02004802HS02004478 CONDUIT    106.59     0  03:02      0.45    0.09    0.35
  HS02004478WS02006287 CONDUIT    375.26     0  03:01      1.68    0.11    0.25
  HS02004817HS02004807 CONDUIT     82.18     0  03:01      0.19    0.05    0.62
  HS02004807HS02004802 CONDUIT    106.49     0  03:01      0.38    0.20    0.40
  YS02001759YS02001757 CONDUIT    675.21     0  02:56      0.86    0.48    1.00
  YS02001762YS02001759 CONDUIT    343.61     0  02:56      0.44    0.40    1.00
  YS02001765YS02001762 CONDUIT    343.60     0  02:56      0.44    0.32    1.00
  YS02001770YS02001767 CONDUIT    343.08     0  02:56      0.44    1.36    1.00
  YS02001774YS02001770 CONDUIT    348.95     0  03:30      0.44    0.22    1.00
  YS02001779YS02001774 CONDUIT    349.21     0  03:30      0.44    0.18    1.00
  YS02001649YS02001757 CONDUIT    940.48     0  02:51      1.20    0.57    1.00
  YS02001767YS02001765 CONDUIT    343.54     0  02:56      0.44    0.43    1.00
  YS02006561YS02001783 CONDUIT    964.17     0  03:00      2.12    0.50    1.00
  YS02001783YS02001784 CONDUIT    964.18     0  03:00      1.92    1.33    1.00
  YS02001784YS02001785 CONDUIT    965.11     0  03:00      1.92    2.25    1.00
  YS02001788YS02001790 CONDUIT    965.24     0  03:00      2.31    0.71    1.00
  YS02001790YS02001791 CONDUIT    965.45     0  03:00      2.83    1.05    1.00
  YS02001791YS02001793 CONDUIT    965.46     0  03:00      5.58    0.41    1.00
  YS02001910YS02001907 CONDUIT    453.98     0  02:54      0.58    0.26    1.00
  YS02001786YS02001788 CONDUIT    965.14     0  03:00      2.22    1.86    1.00
  YS02001915YS02001910 CONDUIT    454.11     0  02:54      0.58    0.23    1.00
  YS02001918YS02001915 CONDUIT    218.90     0  02:54      0.44    0.12    1.00
  YS02001923YS02001920 CONDUIT    215.38     0  02:54      0.68    0.10    1.00
  YS02001926YS02001923 CONDUIT    219.14     0  02:55      0.79    0.31    0.90
  YS02001929YS02001926 CONDUIT    178.01     0  02:55      0.84    0.08    0.80
  YS02001920YS02001918 CONDUIT    218.26     0  02:54      0.67    0.21    1.00
  YS02001629YS02163301 CONDUIT    209.26     0  02:50      0.27    0.26    1.00
  YS02001619YS02001622 CONDUIT    257.47     0  03:01      0.61    0.38    1.00
  YS02001622YS02001625 CONDUIT    257.40     0  03:01      0.33    0.14    1.00
  YS02001625YS02001629 CONDUIT    209.26     0  02:50      0.27    0.10    1.00
  YS02163301YS02001633 CONDUIT    209.16     0  02:50      0.27    0.20    1.00
  YS02163601YS02164001 CONDUIT    441.31     0  02:50      0.56    0.39    1.00
  YS02164001YS02001641 CONDUIT    441.17     0  02:50      0.56    0.60    1.00
  YS02001641YS02001644 CONDUIT    441.21     0  02:50      0.56    1.43    1.00
  YS02001647YS02001649 CONDUIT    669.50     0  02:50      0.85    0.35    1.00
  YS02006553YS02006556 CONDUIT    666.64     0  03:17      0.85    0.57    1.00
  YS02006556YS02006558 CONDUIT    666.60     0  03:17      0.85    0.53    1.00
  YSB6556YSB1171       CONDUIT     24.81     0  03:03      0.09    0.03    0.67
  YS02001907YS02006553 CONDUIT    666.62     0  03:17      0.74    0.78    1.00
  YS02006558YS02006561 CONDUIT    964.18     0  03:00      3.41    2.13    1.00
  YS02001633YS02163601 CONDUIT    441.23     0  02:50      0.56    0.46    1.00
  YS02001644YS02001647 CONDUIT    669.65     0  02:50      0.85    0.39    1.00
  YS02001745YS02001748 CONDUIT    527.47     0  02:43      1.48    0.20    0.94
  YS02001748YS02001751 CONDUIT    382.98     0  02:32      1.05    0.19    1.00
  YS02001751YS02001754 CONDUIT    309.43     0  03:00      0.88    0.15    1.00
  YS02001754YS02001757 CONDUIT    310.00     0  03:00      0.39    0.12    1.00
  YS02001882YS02001884 CONDUIT     25.12     0  02:41      0.09    0.03    1.00
  YS02001884YS02001887 CONDUIT     52.25     0  02:41      0.07    0.07    1.00
  YS02001890YS02001895 CONDUIT    453.52     0  03:01      0.58    0.21    1.00
  YS02001895YS02001898 CONDUIT    453.67     0  03:01      0.58    0.79    1.00
  YS02001898YS02001901 CONDUIT    453.77     0  03:01      0.58    0.29    1.00
  YS02001901YS02001904 CONDUIT    453.69     0  03:01      0.58    0.70    1.00
  YS02001904YS02001907 CONDUIT    453.69     0  03:01      0.58    0.16    1.00
  YS02001887YS02001890 CONDUIT    453.49     0  03:01      0.58    0.78    1.00
  YS02001652YS02001649 CONDUIT    373.05     0  03:00      0.50    0.18    1.00
  YS02001655YS02001652 CONDUIT    372.80     0  03:00      0.93    0.18    1.00
  YS02001658YS02001655 CONDUIT    373.04     0  03:00      1.21    0.16    1.00
  YS02001661YS02001658 CONDUIT    581.63     0  02:40      1.56    0.23    1.00
  YS02001664YS02001661 CONDUIT    691.53     0  02:56      1.51    0.22    0.72
  YSB1154YSB6556       CONDUIT     24.91     0  03:01      0.19    0.04    0.56
  YSB1174YSB1171       CONDUIT     18.78     0  03:01      0.07    0.03    0.68
  YSB1171HS02004479    CONDUIT     42.82     0  03:02      0.54    0.03    0.53
  HS02004881HS02006253 CONDUIT     79.15     0  03:01      1.89    0.02    0.31
  YS02001793JiankangQianchi CONDUIT    965.62     0  03:00     13.98    0.08    1.00
  YS02001757CaochengTiaoxuchi CONDUIT   1789.56     0  02:51      2.39    0.79    1.00
  WSF200WS02003060     CONDUIT    673.05     0  03:05      1.86    0.15    0.37
  1                    CONDUIT   1022.48     0  02:55      3.35    0.36    0.41
  2                    CONDUIT    233.20     0  02:59      6.06    0.56    0.53
  3                    CONDUIT    597.65     0  00:00     10.05    0.95    0.86
  4                    CONDUIT      0.00     0  00:00      0.00    0.00    0.00
  CC-Pump-1            PUMP       200.00     0  02:50              1.00
  CC-Pump-2            PUMP       200.00     0  01:59              1.00
  JK-Pump-1            PUMP       300.00     0  00:00              1.00
  JK-Pump-2            PUMP       300.00     0  00:00              1.00
  XR-Pump-1            PUMP        95.00     0  00:00              1.00
  XR-Pump-2            PUMP        95.00     0  00:30              1.00
  XR-Pump-3            PUMP        95.00     0  00:00              1.00
  XR-Pump-4            PUMP        95.00     0  00:00              1.00
  
  
  ***************************
  Flow Classification Summary
  ***************************
  
  -------------------------------------------------------------------------------------
                      Adjusted    ---------- Fraction of Time in Flow Class ---------- 
                       /Actual         Up    Down  Sub   Sup   Up    Down  Norm  Inlet 
  Conduit               Length    Dry  Dry   Dry   Crit  Crit  Crit  Crit  Ltd   Ctrl  
  -------------------------------------------------------------------------------------
  WS02003066WSF200        1.00   0.03  0.03  0.00  0.00  0.94  0.00  0.00  0.58  0.00
  WS02006287WS02006284    1.00   0.03  0.01  0.00  0.60  0.36  0.00  0.00  0.65  0.00
  WS02006284WS02006280    1.00   0.03  0.00  0.00  0.00  0.00  0.00  0.97  0.00  0.00
  WS02006280WS02006229    1.00   0.04  0.00  0.00  0.00  0.00  0.00  0.96  0.00  0.00
  WS02006229WS02006228    1.00   0.00  0.00  0.00  0.99  0.00  0.00  0.01  0.00  0.00
  WS02006256WS02006235    1.00   0.00  0.00  0.00  1.00  0.00  0.00  0.00  0.00  0.00
  WS02006253WS02006251    1.00   0.02  0.01  0.00  0.97  0.00  0.00  0.00  0.00  0.00
  WS02006252WS02006251    1.00   0.06  0.00  0.00  0.00  0.00  0.94  0.00  0.00  0.00
  WS02006251WS02006249    1.00   0.00  0.00  0.00  1.00  0.00  0.00  0.00  0.23  0.00
  WS02006249WS02006248    1.00   0.00  0.02  0.00  0.92  0.00  0.07  0.00  0.00  0.00
  WS02006248WS02006247    1.00   0.02  0.00  0.00  0.98  0.00  0.00  0.01  0.11  0.00
  WS02006247WS02006245    1.00   0.02  0.00  0.00  0.97  0.00  0.00  0.02  0.00  0.00
  WS02006245WS02006243    1.00   0.01  0.00  0.00  0.95  0.00  0.00  0.03  0.01  0.00
  WS02006243WS02006242    1.00   0.01  0.00  0.00  0.99  0.00  0.00  0.00  0.20  0.00
  WS02006242WS02006240    1.00   0.00  0.00  0.00  1.00  0.00  0.00  0.00  0.00  0.00
  WS02006240WS02006239    1.00   0.00  0.00  0.00  0.97  0.00  0.00  0.03  0.02  0.00
  WS02006239WS02006238    1.00   0.00  0.00  0.00  1.00  0.00  0.00  0.00  0.00  0.00
  WS02006238WS02006235    1.00   0.00  0.00  0.00  1.00  0.00  0.00  0.00  0.00  0.00
  WS02006235WS02006234    1.00   0.00  0.00  0.00  0.96  0.00  0.04  0.00  0.00  0.00
  WS02006234WS02006232    1.00   0.00  0.00  0.00  1.00  0.00  0.00  0.00  0.03  0.00
  WS02006232WS02006231    1.00   0.00  0.00  0.00  0.99  0.00  0.01  0.00  0.00  0.00
  WS02006231WS02006230    1.00   0.00  0.00  0.00  0.72  0.00  0.28  0.00  0.00  0.00
  WS02006230WS02006229    1.00   0.00  0.00  0.00  0.99  0.00  0.00  0.01  0.01  0.00
  WS02006228WS02006109    1.00   0.00  0.00  0.00  1.00  0.00  0.00  0.00  0.00  0.00
  WS02006116WS02004401    1.00   0.02  0.00  0.00  0.98  0.00  0.00  0.00  0.00  0.00
  WS02006115WS02006116    1.00   0.02  0.00  0.00  0.97  0.00  0.00  0.01  0.01  0.00
  WS02006113WS02006111    1.00   0.02  0.00  0.00  0.00  0.98  0.00  0.00  0.09  0.00
  WS02006112WS02006115    1.00   0.02  0.00  0.00  0.98  0.00  0.00  0.00  0.00  0.00
  WS02006111WS02006112    1.00   0.02  0.00  0.00  0.98  0.00  0.00  0.00  0.91  0.00
  WS02006110WS02006113    1.00   0.01  0.00  0.00  0.98  0.00  0.00  0.00  0.00  0.00
  WS02006109WS02006110    1.00   0.00  0.01  0.00  0.98  0.00  0.00  0.00  0.00  0.00
  WS02004411WS02004412    1.00   0.04  0.00  0.00  0.96  0.00  0.00  0.00  0.00  0.00
  WS02004401WS02004402    1.00   0.02  0.00  0.00  0.98  0.00  0.00  0.00  0.00  0.00
  WS02004413WS02003067    1.00   0.05  0.01  0.00  0.00  0.00  0.94  0.00  0.00  0.00
  WS02004412WS02004413    1.00   0.04  0.00  0.00  0.95  0.00  0.00  0.00  0.01  0.00
  WS02004410WS02004411    1.00   0.04  0.00  0.00  0.96  0.00  0.00  0.00  0.00  0.00
  WS02004409WS02004410    1.00   0.04  0.00  0.00  0.96  0.00  0.00  0.00  0.00  0.00
  WS02004407WS02004409    1.00   0.04  0.00  0.00  0.95  0.00  0.00  0.00  0.80  0.00
  WS02004406WS02004407    1.00   0.00  0.04  0.00  0.96  0.00  0.00  0.00  0.00  0.00
  WS02004405WS02004406    1.00   0.00  0.00  0.00  1.00  0.00  0.00  0.00  0.02  0.00
  WS02004404WS02004405    1.00   0.00  0.00  0.00  1.00  0.00  0.00  0.00  0.00  0.00
  WS02004403WS02004404    1.00   0.00  0.02  0.00  0.98  0.00  0.00  0.00  0.02  0.00
  WS02004402WS02004403    1.00   0.02  0.00  0.00  0.98  0.00  0.00  0.00  0.00  0.00
  WS02004139WS02001211    1.00   0.00  0.00  0.00  0.99  0.00  0.00  0.00  0.00  0.00
  WS02004138WS02004139    1.00   0.00  0.00  0.00  0.99  0.01  0.00  0.00  1.00  0.00
  WS02003067WS02003066    1.00   0.06  0.01  0.00  0.94  0.00  0.00  0.00  0.00  0.00
  WS02001213WS02003059    1.00   0.00  0.00  0.00  0.99  0.00  0.00  0.00  0.00  0.00
  WS02001212WS02001213    1.00   0.00  0.00  0.00  0.90  0.00  0.09  0.00  0.00  0.00
  WS02001211WS02001212    1.00   0.00  0.00  0.00  1.00  0.00  0.00  0.00  0.00  0.00
  WS02003072WS02003073    1.00   0.00  0.00  0.00  0.00  0.00  0.00  1.00  0.00  0.00
  WS02003069WS02003072    1.00   0.00  0.00  0.00  0.99  0.01  0.00  0.00  0.20  0.00
  WS02003060WS02003069    1.00   0.00  0.00  0.00  0.99  0.01  0.00  0.00  0.13  0.00
  WS02003059WS02003060    1.00   0.00  0.00  0.00  0.99  0.01  0.00  0.00  0.01  0.00
  HS02004901HS02004770    1.00   0.03  0.00  0.00  0.97  0.00  0.00  0.00  0.00  0.00
  HS02004876HS02004881    1.00   0.02  0.00  0.00  0.90  0.09  0.00  0.00  0.00  0.00
  HS02004870HS02004876    1.00   0.01  0.00  0.00  0.99  0.00  0.00  0.00  0.95  0.00
  HS02004842HS02004848    1.00   0.00  0.03  0.00  0.97  0.00  0.00  0.00  0.58  0.00
  HS02004837HS02004842    1.00   0.00  0.00  0.00  0.99  0.01  0.00  0.00  0.11  0.00
  HS02004830HS02004837    1.00   0.00  0.00  0.00  1.00  0.00  0.00  0.00  0.99  0.00
  HS02004824HS02004830    1.00   0.00  0.00  0.00  1.00  0.00  0.00  0.00  0.00  0.00
  HS02004817HS02004824    1.00   0.00  0.00  0.00  1.00  0.00  0.00  0.00  1.00  0.00
  HS02004770HS02004777    1.00   0.00  0.03  0.00  0.97  0.00  0.00  0.00  0.03  0.00
  HS02004799HS02004480    1.00   0.00  0.02  0.00  0.96  0.00  0.02  0.00  0.00  0.00
  HS02004792HS02004799    1.00   0.00  0.00  0.00  0.99  0.01  0.00  0.00  0.98  0.00
  HS02004788HS02004792    1.00   0.00  0.00  0.00  0.99  0.01  0.00  0.00  0.98  0.00
  HS02004785HS02004788    1.00   0.00  0.00  0.00  1.00  0.00  0.00  0.00  0.00  0.00
  HS02004777HS02004785    1.00   0.00  0.00  0.00  1.00  0.00  0.00  0.00  0.14  0.00
  HS02004480HS02004478    1.00   0.03  0.00  0.00  0.65  0.00  0.00  0.31  0.00  0.00
  HS02004479HS02004480    1.00   0.02  0.00  0.00  0.98  0.00  0.00  0.00  0.13  0.00
  HS02004862HS02004870    1.00   0.00  0.00  0.00  1.00  0.00  0.00  0.00  0.05  0.00
  HS02004848HS02004852    1.00   0.03  0.00  0.00  0.97  0.00  0.00  0.00  0.61  0.00
  HS02004856HS02004862    1.00   0.00  0.04  0.00  0.96  0.00  0.00  0.00  0.80  0.00
  HS02004852HS02004856    1.00   0.03  0.00  0.00  0.96  0.00  0.00  0.00  0.85  0.00
  HS02004802HS02004478    1.00   0.03  0.00  0.00  0.96  0.00  0.00  0.00  0.03  0.00
  HS02004478WS02006287    1.00   0.04  0.00  0.00  0.71  0.25  0.00  0.00  0.66  0.00
  HS02004817HS02004807    1.00   0.00  0.03  0.00  0.97  0.00  0.00  0.00  0.01  0.00
  HS02004807HS02004802    1.00   0.03  0.00  0.00  0.96  0.00  0.00  0.00  0.00  0.00
  YS02001759YS02001757    1.00   0.00  0.00  0.00  1.00  0.00  0.00  0.00  0.16  0.00
  YS02001762YS02001759    1.00   0.00  0.00  0.00  1.00  0.00  0.00  0.00  0.03  0.00
  YS02001765YS02001762    1.00   0.00  0.00  0.00  1.00  0.00  0.00  0.00  0.16  0.00
  YS02001770YS02001767    1.00   0.00  0.00  0.00  1.00  0.00  0.00  0.00  0.00  0.00
  YS02001774YS02001770    1.00   0.00  0.03  0.00  0.96  0.00  0.00  0.00  0.04  0.00
  YS02001779YS02001774    1.00   0.00  0.00  0.00  1.00  0.00  0.00  0.00  0.21  0.00
  YS02001649YS02001757    1.00   0.00  0.00  0.00  1.00  0.00  0.00  0.00  0.17  0.00
  YS02001767YS02001765    1.00   0.00  0.00  0.00  1.00  0.00  0.00  0.00  0.00  0.00
  YS02006561YS02001783    1.00   0.05  0.00  0.00  0.29  0.67  0.00  0.00  0.53  0.00
  YS02001783YS02001784    1.00   0.00  0.05  0.00  0.95  0.00  0.00  0.00  0.01  0.00
  YS02001784YS02001785    1.00   0.00  0.00  0.00  1.00  0.00  0.00  0.00  0.20  0.00
  YS02001788YS02001790    1.00   0.00  0.00  0.00  0.33  0.67  0.00  0.00  0.48  0.00
  YS02001790YS02001791    1.00   0.00  0.00  0.00  0.30  0.70  0.00  0.00  0.52  0.00
  YS02001791YS02001793    1.00   0.00  0.00  0.00  0.30  0.70  0.00  0.00  0.01  0.00
  YS02001910YS02001907    1.00   0.00  0.00  0.00  0.98  0.00  0.00  0.02  0.13  0.00
  YS02001786YS02001788    1.00   0.00  0.00  0.00  0.32  0.68  0.00  0.00  0.00  0.00
  YS02001915YS02001910    1.00   0.00  0.00  0.00  0.99  0.01  0.00  0.00  0.18  0.00
  YS02001918YS02001915    1.00   0.00  0.01  0.00  0.99  0.00  0.00  0.00  0.58  0.00
  YS02001923YS02001920    1.00   0.00  0.00  0.00  1.00  0.00  0.00  0.00  0.86  0.00
  YS02001926YS02001923    1.00   0.00  0.02  0.00  0.14  0.00  0.83  0.00  0.00  0.00
  YS02001929YS02001926    1.00   0.00  0.03  0.00  0.97  0.00  0.00  0.00  0.78  0.00
  YS02001920YS02001918    1.00   0.00  0.01  0.00  0.99  0.00  0.00  0.00  0.00  0.00
  YS02001629YS02163301    1.00   0.04  0.00  0.00  0.96  0.00  0.00  0.00  0.00  0.00
  YS02001619YS02001622    1.00   0.03  0.00  0.00  0.97  0.00  0.00  0.00  0.00  0.00
  YS02001622YS02001625    1.00   0.03  0.00  0.00  0.97  0.00  0.00  0.00  0.07  0.00
  YS02001625YS02001629    1.00   0.03  0.01  0.00  0.94  0.00  0.02  0.00  0.00  0.00
  YS02163301YS02001633    1.00   0.00  0.04  0.00  0.96  0.00  0.00  0.00  0.00  0.00
  YS02163601YS02164001    1.00   0.00  0.03  0.00  0.97  0.00  0.00  0.00  0.00  0.00
  YS02164001YS02001641    1.00   0.01  0.02  0.00  0.97  0.00  0.00  0.00  0.06  0.00
  YS02001641YS02001644    1.00   0.00  0.01  0.00  0.99  0.00  0.00  0.00  0.00  0.00
  YS02001647YS02001649    1.00   0.00  0.04  0.00  0.96  0.00  0.00  0.00  0.01  0.00
  YS02006553YS02006556    1.00   0.01  0.00  0.00  0.99  0.00  0.00  0.00  0.03  0.00
  YS02006556YS02006558    1.00   0.00  0.00  0.00  1.00  0.00  0.00  0.00  0.00  0.00
  YSB6556YSB1171          1.00   0.02  0.01  0.00  0.97  0.00  0.00  0.00  0.00  0.00
  YS02001907YS02006553    1.00   0.00  0.01  0.00  0.98  0.00  0.00  0.00  0.00  0.00
  YS02006558YS02006561    1.00   0.05  0.00  0.00  0.17  0.78  0.00  0.00  0.47  0.00
  YS02001633YS02163601    1.00   0.00  0.01  0.00  0.99  0.00  0.00  0.00  0.16  0.00
  YS02001644YS02001647    1.00   0.00  0.04  0.00  0.96  0.00  0.00  0.00  0.00  0.00
  YS02001745YS02001748    1.00   0.00  0.00  0.00  0.89  0.01  0.00  0.10  0.04  0.00
  YS02001748YS02001751    1.00   0.00  0.00  0.00  0.97  0.03  0.00  0.00  0.15  0.00
  YS02001751YS02001754    1.00   0.00  0.00  0.00  0.95  0.00  0.00  0.05  0.02  0.00
  YS02001754YS02001757    1.00   0.00  0.00  0.00  0.99  0.01  0.00  0.00  0.20  0.00
  YS02001882YS02001884    1.00   0.04  0.00  0.00  0.96  0.00  0.00  0.00  0.00  0.00
  YS02001884YS02001887    1.00   0.02  0.01  0.00  0.97  0.00  0.00  0.00  0.00  0.00
  YS02001890YS02001895    1.00   0.00  0.04  0.00  0.96  0.00  0.00  0.00  0.00  0.00
  YS02001895YS02001898    1.00   0.04  0.00  0.00  0.95  0.00  0.01  0.00  0.00  0.00
  YS02001898YS02001901    1.00   0.04  0.00  0.00  0.96  0.00  0.00  0.00  0.02  0.00
  YS02001901YS02001904    1.00   0.04  0.00  0.00  0.96  0.00  0.00  0.00  0.00  0.00
  YS02001904YS02001907    1.00   0.00  0.04  0.00  0.96  0.00  0.00  0.00  0.00  0.00
  YS02001887YS02001890    1.00   0.00  0.00  0.00  0.98  0.00  0.01  0.00  0.00  0.00
  YS02001652YS02001649    1.00   0.00  0.00  0.00  1.00  0.00  0.00  0.00  0.18  0.00
  YS02001655YS02001652    1.00   0.00  0.00  0.00  0.95  0.00  0.00  0.05  0.02  0.00
  YS02001658YS02001655    1.00   0.00  0.04  0.00  0.94  0.03  0.00  0.00  0.11  0.00
  YS02001661YS02001658    1.00   0.04  0.00  0.00  0.89  0.07  0.00  0.00  0.05  0.00
  YS02001664YS02001661    1.00   0.03  0.00  0.00  0.88  0.08  0.00  0.00  0.22  0.00
  YSB1154YSB6556          1.00   0.03  0.00  0.00  0.97  0.00  0.00  0.00  0.02  0.00
  YSB1174YSB1171          1.00   0.02  0.01  0.00  0.97  0.00  0.00  0.00  0.00  0.00
  YSB1171HS02004479       1.00   0.02  0.00  0.00  0.98  0.00  0.00  0.00  0.11  0.00
  HS02004881HS02006253    1.00   0.02  0.00  0.00  0.79  0.03  0.00  0.16  0.64  0.00
  YS02001793JiankangQianchi    1.00   0.00  0.00  0.00  0.46  0.54  0.00  0.00  0.13  0.00
  YS02001757CaochengTiaoxuchi    1.00   0.00  0.06  0.00  0.94  0.00  0.00  0.00  0.00  0.00
  WSF200WS02003060        1.00   0.00  0.03  0.00  0.74  0.23  0.00  0.00  0.28  0.00
  1                       1.00   0.00  0.00  0.00  0.00  1.00  0.00  0.00  0.37  0.00
  2                       1.00   0.54  0.00  0.00  0.00  0.46  0.00  0.00  0.08  0.00
  3                       1.00   0.06  0.00  0.00  0.00  0.94  0.00  0.00  0.03  0.00
  4                       1.00   1.00  0.00  0.00  0.00  0.00  0.00  0.00  0.00  0.00
  
  
  *************************
  Conduit Surcharge Summary
  *************************
  
  ----------------------------------------------------------------------------
                                                           Hours        Hours 
                         --------- Hours Full --------   Above Full   Capacity
  Conduit                Both Ends  Upstream  Dnstream   Normal Flow   Limited
  ----------------------------------------------------------------------------
  WS02006229WS02006228        2.73      2.97      2.73      5.27         2.73
  WS02006256WS02006235        6.06      6.06      7.61      3.53         0.01
  WS02006253WS02006251        0.16      0.16      0.25      0.01         0.01
  WS02006252WS02006251        1.71      1.71      2.70      2.44         0.01
  WS02006251WS02006249        0.01      0.19      0.01      1.86         0.01
  WS02006249WS02006248        0.01      0.01      0.01      4.64         0.01
  WS02006248WS02006247        0.01      0.01      0.25      0.01         0.01
  WS02006247WS02006245        0.24      0.31      0.24      5.11         0.24
  WS02006245WS02006243        0.29      0.29      0.48      0.01         0.01
  WS02006243WS02006242        0.54      0.54      2.02      0.01         0.01
  WS02006242WS02006240        0.72      0.72      2.44      2.08         0.01
  WS02006240WS02006239        1.13      1.13      1.35      0.01         0.01
  WS02006239WS02006238        2.38      2.38      2.54      0.13         0.15
  WS02006238WS02006235        2.41      2.41      2.83      0.01         0.01
  WS02006235WS02006234        0.85      0.85      2.10      6.09         0.01
  WS02006234WS02006232        1.28      1.28      3.00      0.01         0.01
  WS02006232WS02006231        0.70      0.70      3.00      0.01         0.01
  WS02006231WS02006230        0.66      0.66      0.72      6.05         0.01
  WS02006230WS02006229        3.79      5.07      3.79      6.12         3.79
  WS02006228WS02006109        2.85      3.33      2.85      5.78         2.85
  WS02006112WS02006115        0.01      0.01      1.22      0.01         0.01
  WS02006111WS02006112        0.01      0.01      5.30      0.01         0.01
  WS02006110WS02006113        0.01      0.01      3.18      0.01         0.01
  WS02006109WS02006110        1.01      1.01      3.33      1.02         0.01
  WS02004401WS02004402        0.01      0.01      0.02      0.01         0.01
  WS02004406WS02004407        0.01      0.01      0.42      0.01         0.01
  WS02004405WS02004406        0.42      0.62      0.42      1.16         0.42
  WS02004404WS02004405        0.62      0.66      0.62      6.00         0.62
  WS02004403WS02004404        0.07      0.07      0.66      0.01         0.01
  WS02004402WS02004403        0.02      0.02      0.07      0.01         0.01
  WS02003072WS02003073        0.01      0.01      0.01      5.65         0.01
  HS02004480HS02004478        0.01      0.01      0.01      0.25         0.01
  YS02001759YS02001757        5.66      5.66      5.74      0.01         0.01
  YS02001762YS02001759        5.64      5.64      5.66      0.01         0.01
  YS02001765YS02001762        5.61      5.61      5.64      0.01         0.01
  YS02001770YS02001767        5.58      5.58      5.58      0.34         0.82
  YS02001774YS02001770        5.57      5.57      5.63      0.01         0.01
  YS02001779YS02001774        5.41      5.41      5.63      0.01         0.01
  YS02001649YS02001757        5.64      5.64      5.74      0.01         0.01
  YS02001767YS02001765        5.58      5.58      5.61      0.01         0.01
  YS02006561YS02001783        0.66      0.66      1.24      0.01         0.01
  YS02001783YS02001784        1.24      1.24      1.30      1.11         0.99
  YS02001784YS02001785        1.25      1.30      1.25      2.10         1.25
  YS02001788YS02001790        1.24      1.24      1.70      0.01         0.01
  YS02001790YS02001791        1.70      1.70      1.73      0.49         0.49
  YS02001791YS02001793        1.73      1.73      1.86      0.01         0.01
  YS02001910YS02001907        0.99      0.99      1.50      0.01         0.01
  YS02001786YS02001788        1.24      1.25      1.24      1.66         1.23
  YS02001915YS02001910        0.77      0.77      0.99      0.01         0.01
  YS02001918YS02001915        0.52      0.52      0.77      0.01         0.01
  YS02001923YS02001920        0.31      0.31      0.56      0.01         0.01
  YS02001920YS02001918        0.52      0.52      0.56      0.01         0.01
  YS02001629YS02163301        5.57      5.57      5.58      0.01         0.01
  YS02001619YS02001622        5.22      5.22      5.26      0.01         0.01
  YS02001622YS02001625        5.26      5.26      5.52      0.01         0.01
  YS02001625YS02001629        5.23      5.23      5.52      0.01         0.01
  YS02163301YS02001633        5.58      5.58      5.61      0.01         0.01
  YS02163601YS02164001        5.61      5.61      5.64      0.01         0.01
  YS02164001YS02001641        5.61      5.61      5.62      0.01         0.02
  YS02001641YS02001644        5.62      5.62      5.62      1.21         1.35
  YS02001647YS02001649        5.45      5.45      5.64      0.01         0.01
  YS02006553YS02006556        1.20      1.20      1.56      0.01         0.01
  YS02006556YS02006558        1.36      1.36      1.63      0.01         0.01
  YS02001907YS02006553        2.09      2.09      2.30      0.01         0.01
  YS02006558YS02006561        0.88      1.15      0.88      1.94         0.88
  YS02001633YS02163601        5.60      5.60      5.64      0.01         0.01
  YS02001644YS02001647        5.45      5.45      5.62      0.01         0.01
  YS02001745YS02001748        0.01      0.01      5.05      0.01         0.01
  YS02001748YS02001751        5.10      5.10      5.21      0.01         0.01
  YS02001751YS02001754        5.21      5.21      5.41      0.01         0.01
  YS02001754YS02001757        5.45      5.45      5.74      0.01         0.01
  YS02001882YS02001884        0.79      0.79      0.83      0.01         0.01
  YS02001884YS02001887        0.88      0.88      0.91      0.01         0.01
  YS02001890YS02001895        0.76      0.76      1.01      0.01         0.01
  YS02001895YS02001898        0.74      0.74      0.76      0.01         0.01
  YS02001898YS02001901        0.77      0.77      0.87      0.01         0.01
  YS02001901YS02001904        0.85      0.85      0.87      0.01         0.01
  YS02001904YS02001907        0.85      0.85      1.59      0.01         0.01
  YS02001887YS02001890        0.94      0.94      0.97      0.01         0.01
  YS02001652YS02001649        5.47      5.47      5.64      0.01         0.01
  YS02001655YS02001652        5.25      5.25      5.44      0.01         0.01
  YS02001658YS02001655        5.08      5.08      5.25      0.01         0.01
  YS02001661YS02001658        0.21      0.21      5.08      0.01         0.01
  YS02001664YS02001661        0.01      0.01      1.16      0.01         0.01
  YS02001793JiankangQianchi        1.82      1.82      2.61      0.01         0.01
  YS02001757CaochengTiaoxuchi        4.87      4.87      5.74      0.01         0.01
  3                           0.01      0.01      0.01      0.01         0.01
  
  
  ***************
  Pumping Summary
  ***************
  
  ---------------------------------------------------------------------------------------------------------
                                                  Min       Avg       Max     Total     Power    % Time Off
                        Percent   Number of      Flow      Flow      Flow    Volume     Usage    Pump Curve
  Pump                 Utilized   Start-Ups       LPS       LPS       LPS  10^6 ltr     Kw-hr    Low   High
  ---------------------------------------------------------------------------------------------------------
  CC-Pump-1               60.91           6      0.00    131.12    200.00     2.233      3.60    0.0   12.5
  CC-Pump-2               67.31           6      0.00    163.19    200.00     3.041      4.52    0.0    8.2
  JK-Pump-1               93.62           3      0.00    185.70    300.00     3.963     55.43    0.0    0.0
  JK-Pump-2               87.23           4      0.00    205.11    300.00     3.788     44.36    0.0    0.0
  XR-Pump-1               80.84           7      0.00     73.56     95.00     1.653     14.17    0.0    0.0
  XR-Pump-2               87.22           7      0.00     69.33     95.00     1.681     15.53    0.0    0.0
  XR-Pump-3               93.61           7      0.00     77.61     95.00     2.052     17.32    0.0    0.0
  XR-Pump-4               89.34           9      0.00     66.02     95.00     1.767     16.72    0.0    0.0
  

  Analysis begun on:  Wed Dec 22 18:30:30 2021
  Analysis ended on:  Wed Dec 22 18:30:35 2021
  Total elapsed time: 00:00:05