
  EPA STORM WATER MANAGEMENT MODEL - VERSION 5.1 (Build 5.3.0.dev0)
  --------------------------------------------------------------

  WARNING 04: minimum elevation drop used for Conduit WS02004404WS02004405
  WARNING 03: negative offset ignored for Link YS02001904YS02001907
  
  *********************************************************
  NOTE: The summary statistics displayed in this report are
  based on results found at every computational time step,  
  not just on results from each reporting time step.
  *********************************************************
  
  ****************
  Analysis Options
  ****************
  Flow Units ............... LPS
  Process Models:
    Rainfall/Runoff ........ YES
    RDII ................... NO
    Snowmelt ............... NO
    Groundwater ............ NO
    Flow Routing ........... YES
    Ponding Allowed ........ NO
    Water Quality .......... NO
  Infiltration Method ...... HORTON
  Flow Routing Method ...... DYNWAVE
  Surcharge Method ......... EXTRAN
  Starting Date ............ 08/28/2015 08:00:00
  Ending Date .............. 08/28/2015 15:50:00
  Antecedent Dry Days ...... 8.0
  Report Time Step ......... 00:01:00
  Wet Time Step ............ 00:01:00
  Dry Time Step ............ 00:01:00
  Routing Time Step ........ 5.00 sec
  Variable Time Step ....... YES
  Maximum Trials ........... 8
  Number of Threads ........ 4
  Head Tolerance ........... 0.001500 m
  
  
  **************************        Volume         Depth
  Runoff Quantity Continuity     hectare-m            mm
  **************************     ---------       -------
  Total Precipitation ......         5.556        12.164
  Evaporation Loss .........         0.000         0.000
  Infiltration Loss ........         1.427         3.124
  Surface Runoff ...........         3.072         6.726
  Final Storage ............         1.058         2.316
  Continuity Error (%) .....        -0.016
  
  
  **************************        Volume        Volume
  Flow Routing Continuity        hectare-m      10^6 ltr
  **************************     ---------     ---------
  Dry Weather Inflow .......         0.616         6.165
  Wet Weather Inflow .......         3.071        30.709
  Groundwater Inflow .......         0.000         0.000
  RDII Inflow ..............         0.000         0.000
  External Inflow ..........         0.102         1.024
  External Outflow .........         2.115        21.146
  Flooding Loss ............         1.199        11.990
  Evaporation Loss .........         0.000         0.000
  Exfiltration Loss ........         0.000         0.000
  Initial Stored Volume ....         0.076         0.761
  Final Stored Volume ......         0.626         6.263
  Continuity Error (%) .....        -1.918
  
  
  *************************
  Highest Continuity Errors
  *************************
  Node HS02004842 (16.24%)
  Node YS02001884 (11.72%)
  Node JK-storage (-8.29%)
  Node YSB1171 (3.12%)
  Node HS02004817 (2.99%)
  
  
  ***************************
  Time-Step Critical Elements
  ***************************
  Link WS02006252WS02006251 (51.84%)
  Link 3 (39.07%)
  Link WS02006238WS02006235 (2.85%)
  Link WS02006280WS02006229 (1.44%)
  
  
  ********************************
  Highest Flow Instability Indexes
  ********************************
  Link YS02163301YS02001633 (37)
  Link YS02001629YS02163301 (37)
  Link YS02163601YS02164001 (37)
  Link YS02001619YS02001622 (36)
  Link YS02164001YS02001641 (34)
  
  
  *************************
  Routing Time Step Summary
  *************************
  Minimum Time Step           :     0.26 sec
  Average Time Step           :     0.77 sec
  Maximum Time Step           :     5.00 sec
  Percent in Steady State     :    -0.00
  Average Iterations per Step :     4.59
  Percent Not Converging      :    22.42
  
  
  ***************************
  Subcatchment Runoff Summary
  ***************************
  
  ------------------------------------------------------------------------------------------------------------------------------
                            Total      Total      Total      Total     Imperv       Perv      Total       Total     Peak  Runoff
                           Precip      Runon       Evap      Infil     Runoff     Runoff     Runoff      Runoff   Runoff   Coeff
  Subcatchment                 mm         mm         mm         mm         mm         mm         mm    10^6 ltr      LPS
  ------------------------------------------------------------------------------------------------------------------------------
  sub0                      12.16       0.00       0.00       0.85      10.05       0.00      10.05        0.01     1.91   0.826
  sub1                      12.16       0.00       0.00       1.34       9.56       0.00       9.56        0.06    14.15   0.786
  sub2                      12.16       0.00       0.00       4.50       6.75       0.00       6.75        0.06    13.75   0.555
  sub3                      12.16       0.00       0.00       4.50       6.71       0.00       6.71        0.15    32.07   0.552
  sub4                      12.16       0.00       0.00       1.34       9.40       0.00       9.40        0.20    40.20   0.773
  sub5                      12.16       0.00       0.00       0.85       9.99       0.00       9.99        0.11    25.19   0.822
  sub7                      12.16       0.00       0.00       1.09       9.81       0.00       9.81        0.03     7.55   0.807
  sub8                      12.16       0.00       0.00       1.09       9.80       0.00       9.80        0.06    14.17   0.806
  sub9                      12.16       0.00       0.00       1.09       9.80       0.00       9.80        0.05    10.64   0.806
  sub10                     12.16       0.00       0.00       0.97       9.89       0.00       9.89        0.11    24.40   0.813
  sub11                     12.16       0.00       0.00       0.97       9.91       0.00       9.91        0.12    26.15   0.815
  sub12                     12.16       0.00       0.00       1.58       9.39       0.00       9.39        0.08    19.06   0.772
  sub14                     12.16       0.00       0.00       1.09       9.80       0.00       9.80        0.09    21.02   0.805
  sub15                     12.16       0.00       0.00       3.65       7.53       0.00       7.53        0.13    29.11   0.619
  sub16                     12.16       0.00       0.00       4.01       7.23       0.00       7.23        0.08    17.47   0.594
  sub17                     12.16       0.00       0.00       3.89       7.34       0.00       7.34        0.06    14.47   0.603
  sub22                     12.16       0.00       0.00       5.23       6.14       0.00       6.14        0.39    88.27   0.505
  sub23                     12.16       0.00       0.00       4.50       6.79       0.00       6.79        0.32    73.89   0.558
  sub60                     12.16       0.00       0.00       1.46       7.71       0.00       7.71        2.34   297.17   0.634
  sub61                     12.16       0.00       0.00       2.07       7.87       0.00       7.87        2.43   359.80   0.647
  sub62                     12.16       0.00       0.00       0.97       8.55       0.00       8.55        2.63   372.87   0.703
  sub63                     12.16       0.00       0.00       3.53       6.89       0.00       6.89        2.09   327.80   0.567
  sub64                     12.16       0.00       0.00       1.82       7.40       0.00       7.40        2.25   282.66   0.608
  sub65                     12.16       0.00       0.00       1.58       7.52       0.00       7.52        2.31   287.20   0.618
  sub66                     12.16       0.00       0.00       3.53       6.36       0.00       6.36        1.95   257.27   0.523
  sub67                     12.16       0.00       0.00       0.97       9.05       0.00       9.05        2.79   452.90   0.744
  sub68                     12.16       0.00       0.00       1.70       8.28       0.00       8.28        2.55   391.99   0.681
  sub69                     12.16       0.00       0.00       1.82       8.61       0.00       8.61        2.01   355.79   0.708
  sub70                     12.16       8.79       0.00       7.03      11.43       0.10      11.53        2.64   335.00   0.550
  sub71                     12.16       0.00       0.00       0.97       8.31       0.00       8.31        1.96   263.63   0.683
  sub72                     12.16       0.00       0.00       0.85       6.56       0.00       6.56        1.34   129.40   0.540
  sub73                     12.16      11.23       0.00       7.88      12.47       0.08      12.54        2.95   300.52   0.536
  sub74                     12.16       0.00       0.00       9.12       2.57       0.00       2.57        1.03   189.59   0.211
  
  
  ******************
  Node Depth Summary
  ******************
  
  ---------------------------------------------------------------------------------
                                 Average  Maximum  Maximum  Time of Max    Reported
                                   Depth    Depth      HGL   Occurrence   Max Depth
  Node                 Type       Meters   Meters   Meters  days hr:min      Meters
  ---------------------------------------------------------------------------------
  WS02001211           JUNCTION     0.66     0.78     5.62     0  03:31        0.78
  WS02001212           JUNCTION     0.39     0.49     5.55     0  03:31        0.49
  WS02001213           JUNCTION     0.63     0.74     5.50     0  03:31        0.74
  WS02003069           JUNCTION     0.46     0.57     5.16     0  03:13        0.57
  WS02003072           JUNCTION     0.52     0.63     5.00     0  03:13        0.63
  WS02003073           JUNCTION     0.31     0.39     4.45     0  03:14        0.39
  WS02003060           JUNCTION     0.41     0.51     5.44     0  03:12        0.51
  WS02003066           JUNCTION     0.25     0.32     5.88     0  03:07        0.32
  WS02003059           JUNCTION     0.69     0.79     5.47     0  03:32        0.79
  WS02003067           JUNCTION     0.61     0.74     6.06     0  03:06        0.74
  WS02004401           JUNCTION     0.73     0.95     6.95     0  03:05        0.95
  WS02004402           JUNCTION     0.76     0.97     6.93     0  03:05        0.97
  WS02004403           JUNCTION     0.77     0.98     6.91     0  03:04        0.98
  WS02004404           JUNCTION     0.85     1.04     6.89     0  03:04        1.04
  WS02004406           JUNCTION     0.85     1.02     6.85     0  03:05        1.02
  WS02004409           JUNCTION     0.54     0.74     6.51     0  03:06        0.74
  WS02004410           JUNCTION     0.56     0.75     6.47     0  03:07        0.75
  WS02004411           JUNCTION     0.57     0.75     6.43     0  03:07        0.75
  WS02004412           JUNCTION     0.59     0.75     6.39     0  03:07        0.75
  WS02004413           JUNCTION     0.74     0.91     6.38     0  03:07        0.91
  WS02004405           JUNCTION     0.84     1.03     6.88     0  03:04        1.03
  WS02006109           JUNCTION     0.82     1.08     7.70     0  03:03        1.07
  WS02006110           JUNCTION     0.80     1.00     7.59     0  03:03        1.00
  WS02006111           JUNCTION     0.24     0.34     7.05     0  03:04        0.34
  WS02006112           JUNCTION     0.90     1.19     7.07     0  02:30        1.17
  WS02006113           JUNCTION     0.37     0.50     7.40     0  03:03        0.50
  WS02006115           JUNCTION     0.62     0.86     7.00     0  03:05        0.86
  WS02006116           JUNCTION     0.70     0.94     6.98     0  03:05        0.93
  WS02006230           JUNCTION     0.81     1.14     7.88     0  03:02        1.14
  WS02006231           JUNCTION     0.55     0.79     7.92     0  03:03        0.79
  WS02006232           JUNCTION     0.69     0.92     7.96     0  02:34        0.91
  WS02006234           JUNCTION     0.61     0.84     8.00     0  02:30        0.84
  WS02006235           JUNCTION     0.65     0.87     8.03     0  02:32        0.87
  WS02006238           JUNCTION     0.67     0.90     8.04     0  02:32        0.89
  WS02006240           JUNCTION     0.58     0.80     8.10     0  02:30        0.80
  WS02006242           JUNCTION     0.64     0.86     8.13     0  02:30        0.86
  WS02006243           JUNCTION     0.52     0.74     8.16     0  02:30        0.74
  WS02006245           JUNCTION     0.49     0.71     8.19     0  02:30        0.71
  WS02006247           JUNCTION     0.51     0.71     8.21     0  02:30        0.71
  WS02006248           JUNCTION     0.45     0.64     8.23     0  02:30        0.64
  WS02006249           JUNCTION     0.48     0.65     8.25     0  02:30        0.65
  WS02006239           JUNCTION     0.63     0.86     8.07     0  02:30        0.86
  WS02006251           JUNCTION     0.47     0.69     8.36     0  02:30        0.69
  WS02006252           JUNCTION     0.42     0.59     8.84     0  07:29        0.59
  WS02006253           JUNCTION     0.50     0.72     8.36     0  02:30        0.71
  WS02006256           JUNCTION     1.07     1.22     8.15     0  02:30        1.22
  WS02004138           JUNCTION     0.15     0.20     7.45     0  00:00        0.19
  WS02004407           JUNCTION     0.24     0.32     6.64     0  03:05        0.32
  WS02006228           JUNCTION     0.83     1.15     7.80     0  03:02        1.14
  WS02006229           JUNCTION     0.81     1.15     7.85     0  03:02        1.15
  WS02006280           JUNCTION     0.07     0.19     8.46     0  03:02        0.19
  WS02006284           JUNCTION     0.37     0.55     8.95     0  03:02        0.55
  WS02006287           JUNCTION     0.11     0.28     9.24     0  03:01        0.28
  WSF200               JUNCTION     0.24     0.34     5.58     0  03:08        0.34
  HS02004901           JUNCTION     0.13     0.28    10.10     0  03:01        0.28
  HS02004881           JUNCTION     0.01     0.04     9.07     0  03:01        0.04
  HS02004876           JUNCTION     0.05     0.12     9.15     0  03:01        0.12
  HS02004870           JUNCTION     0.02     0.06     9.35     0  03:01        0.06
  HS02004862           JUNCTION     0.02     0.07     9.46     0  03:01        0.07
  HS02004856           JUNCTION     0.08     0.13     9.55     0  03:01        0.13
  HS02004852           JUNCTION     0.01     0.05     9.56     0  03:01        0.05
  HS02004848           JUNCTION     0.01     0.05     9.65     0  03:01        0.05
  HS02004842           JUNCTION     0.33     0.38     9.65     0  03:01        0.38
  HS02004837           JUNCTION     0.03     0.07     9.65     0  03:01        0.07
  HS02004830           JUNCTION     0.04     0.08     9.55     0  03:01        0.08
  HS02004824           JUNCTION     0.03     0.06     9.46     0  03:01        0.06
  HS02004817           JUNCTION     0.45     0.60     9.44     0  03:01        0.60
  HS02004807           JUNCTION     0.13     0.27     9.44     0  03:01        0.27
  HS02004802           JUNCTION     0.17     0.30     9.43     0  03:01        0.30
  HS02004799           JUNCTION     0.13     0.33     9.54     0  03:01        0.33
  HS02004792           JUNCTION     0.04     0.14     9.66     0  03:01        0.14
  HS02004788           JUNCTION     0.03     0.10    10.00     0  03:01        0.10
  HS02004785           JUNCTION     0.05     0.17    10.07     0  03:01        0.17
  HS02004777           JUNCTION     0.15     0.30    10.10     0  03:01        0.30
  HS02004770           JUNCTION     0.13     0.27    10.10     0  03:01        0.27
  HS02004480           JUNCTION     0.09     0.26     9.50     0  03:01        0.26
  HS02004479           JUNCTION     0.13     0.30     9.50     0  03:01        0.30
  HS02004478           JUNCTION     0.07     0.18     9.41     0  03:01        0.18
  YS02001745           JUNCTION     0.67     0.88     8.39     0  03:42        0.87
  YS02001748           JUNCTION     1.05     2.22     9.30     0  02:46        1.31
  YS02001751           JUNCTION     1.24     2.09     8.96     0  02:46        1.52
  YS02001754           JUNCTION     1.49     2.05     8.66     0  02:46        1.80
  YS02001762           JUNCTION     1.69     2.03     8.43     0  03:47        2.02
  YS02001765           JUNCTION     1.65     1.97     8.42     0  03:28        1.96
  YS02001767           JUNCTION     1.61     1.93     8.42     0  03:33        1.92
  YS02001770           JUNCTION     1.61     1.91     8.40     0  03:28        1.89
  YS02001774           JUNCTION     1.67     1.98     8.40     0  02:46        1.96
  YS02001779           JUNCTION     1.42     1.68     8.37     0  02:44        1.68
  YS02001882           JUNCTION     0.53     1.63     8.35     0  02:54        1.61
  YS02001884           JUNCTION     0.62     1.73     8.34     0  02:54        1.71
  YS02001759           JUNCTION     1.73     2.07     8.43     0  03:30        2.06
  YS02001887           JUNCTION     0.70     1.80     8.34     0  02:54        1.79
  YS02001890           JUNCTION     0.73     1.81     8.32     0  02:54        1.81
  YS02001898           JUNCTION     0.50     1.56     8.30     0  02:54        1.56
  YS02001901           JUNCTION     0.61     1.67     8.28     0  02:54        1.67
  YS02001904           JUNCTION     0.59     1.64     8.27     0  02:54        1.63
  YS02001907           JUNCTION     0.92     1.96     8.25     0  02:53        1.96
  YS02001910           JUNCTION     0.71     1.78     8.29     0  02:55        1.77
  YS02001915           JUNCTION     0.51     1.60     8.32     0  02:55        1.58
  YS02001918           JUNCTION     0.26     1.29     8.36     0  02:53        1.26
  YS02001619           JUNCTION     1.21     1.61     8.54     0  02:42        1.47
  YS02001629           JUNCTION     1.56     1.85     8.40     0  02:42        1.84
  YS02001641           JUNCTION     1.66     1.96     8.40     0  02:46        1.93
  YS02001644           JUNCTION     1.66     1.92     8.35     0  02:44        1.92
  YS02001652           JUNCTION     1.51     2.16     8.76     0  03:03        1.99
  YS02001655           JUNCTION     1.27     2.20     9.05     0  03:04        1.95
  YS02001920           JUNCTION     0.35     1.35     8.36     0  02:55        1.34
  YS02001923           JUNCTION     0.20     1.11     8.37     0  02:55        1.10
  YS02001926           JUNCTION     0.26     0.94     8.38     0  02:55        0.91
  YS02001929           JUNCTION     0.14     0.70     8.40     0  02:55        0.67
  YS02001658           JUNCTION     1.00     2.30     9.44     0  03:03        1.85
  YS02001661           JUNCTION     0.78     2.46     9.86     0  03:03        1.70
  YS02001664           JUNCTION     0.34     0.57     8.50     0  02:56        0.56
  YS02001622           JUNCTION     1.23     1.58     8.48     0  02:42        1.49
  YS02001633           JUNCTION     1.65     1.99     8.45     0  02:46        1.94
  YS02001649           JUNCTION     1.70     2.05     8.44     0  02:56        2.05
  YS02001757           JUNCTION     1.82     2.17     8.44     0  02:44        2.16
  YS02001895           JUNCTION     0.49     1.57     8.31     0  02:54        1.56
  YS02001625           JUNCTION     1.51     1.78     8.38     0  02:41        1.78
  YS02163301           JUNCTION     1.59     1.92     8.43     0  02:46        1.87
  YS02163601           JUNCTION     1.70     2.04     8.44     0  02:46        1.98
  YS02164001           JUNCTION     1.64     1.97     8.43     0  02:46        1.91
  YS02001647           JUNCTION     1.49     1.81     8.42     0  02:59        1.79
  YSB1154              JUNCTION     0.27     0.45     9.51     0  03:01        0.45
  YSB6556              JUNCTION     0.16     0.34     9.51     0  03:01        0.34
  YSB1174              JUNCTION     0.22     0.40     9.51     0  03:01        0.40
  YSB1171              JUNCTION     0.42     0.60     9.51     0  03:01        0.60
  YS02006553           JUNCTION     0.92     1.96     8.25     0  02:56        1.96
  YS02006561           JUNCTION     0.30     1.11     7.77     0  02:54        1.11
  YS02006556           JUNCTION     0.89     1.92     8.23     0  03:01        1.92
  YS02006558           JUNCTION     0.93     1.96     8.22     0  03:01        1.95
  YS02001783           JUNCTION     0.53     1.70     7.84     0  02:48        1.50
  YS02001784           JUNCTION     0.55     1.89     7.96     0  02:48        1.44
  YS02001786           JUNCTION     0.49     2.23     8.26     0  02:48        1.28
  YS02001788           JUNCTION     0.43     2.28     8.26     0  02:48        1.15
  YS02001790           JUNCTION     0.56     1.96     7.60     0  02:48        1.31
  YS02001791           JUNCTION     0.53     2.72     8.19     0  04:44        1.28
  YS02001793           JUNCTION     0.74     2.19     7.02     0  04:44        1.80
  WS02004139           JUNCTION     0.60     0.72     5.63     0  06:46        0.72
  WSC                  OUTFALL      0.31     0.39     1.06     0  03:14        0.39
  3                    OUTFALL      0.10     0.21     6.21     0  02:31        0.21
  4                    OUTFALL      0.04     0.15     7.15     0  02:30        0.15
  5                    OUTFALL      0.00     0.00     5.00     0  00:00        0.00
  JK-storage           STORAGE      2.62     5.80     6.60     0  02:48        5.80
  CC-storage           STORAGE      1.04     1.38     8.38     0  03:41        1.38
  XR-storage           STORAGE      7.15     7.72     5.72     0  02:28        7.72
  
  
  *******************
  Node Inflow Summary
  *******************
  
  -------------------------------------------------------------------------------------------------
                                  Maximum  Maximum                  Lateral       Total        Flow
                                  Lateral    Total  Time of Max      Inflow      Inflow     Balance
                                   Inflow   Inflow   Occurrence      Volume      Volume       Error
  Node                 Type           LPS      LPS  days hr:min    10^6 ltr    10^6 ltr     Percent
  -------------------------------------------------------------------------------------------------
  WS02001211           JUNCTION      7.35   388.27     0  06:49       0.207        6.98       0.506
  WS02001212           JUNCTION      0.00   388.94     0  06:49           0        6.95       0.262
  WS02001213           JUNCTION      0.00   389.52     0  06:48           0        6.93       0.419
  WS02003069           JUNCTION      0.32   915.36     0  03:12     0.00902        16.2       0.213
  WS02003072           JUNCTION      0.00   915.03     0  03:13           0        16.1       0.255
  WS02003073           JUNCTION      1.82   916.75     0  03:13      0.0514        16.1       0.291
  WS02003060           JUNCTION     16.53   915.61     0  03:12       0.466        16.2       0.201
  WS02003066           JUNCTION      0.00   642.80     0  03:08           0        8.86       0.058
  WS02003059           JUNCTION      0.00   390.57     0  06:48           0        6.91       0.559
  WS02003067           JUNCTION      0.00   642.85     0  03:07           0        8.87       0.118
  WS02004401           JUNCTION      0.00   649.29     0  03:04           0        9.14       0.266
  WS02004402           JUNCTION      0.00   647.79     0  03:04           0        9.11       0.248
  WS02004403           JUNCTION      0.00   645.20     0  03:05           0        9.09       0.223
  WS02004404           JUNCTION      0.16   644.69     0  03:05     0.00457        9.07       0.165
  WS02004406           JUNCTION      0.00   644.95     0  03:05           0        9.04       0.401
  WS02004409           JUNCTION      0.00   644.58     0  03:05           0        8.99       0.221
  WS02004410           JUNCTION      0.00   644.12     0  03:05           0        8.97       0.245
  WS02004411           JUNCTION      0.00   643.54     0  03:07           0        8.95       0.247
  WS02004412           JUNCTION      0.00   643.02     0  03:06           0        8.93       0.262
  WS02004413           JUNCTION      0.00   643.19     0  03:07           0        8.91       0.378
  WS02004405           JUNCTION      0.04   644.87     0  03:05     0.00107        9.06       0.245
  WS02006109           JUNCTION      1.23   638.73     0  03:03      0.0347        9.21       0.250
  WS02006110           JUNCTION      0.00   638.69     0  03:03           0        9.19       0.239
  WS02006111           JUNCTION      0.00   670.73     0  03:03           0        9.16       0.059
  WS02006112           JUNCTION     14.47   653.00     0  03:04      0.0629        9.21       0.346
  WS02006113           JUNCTION      0.00   639.93     0  03:03           0        9.17       0.128
  WS02006115           JUNCTION      0.00   655.23     0  03:04           0        9.18       0.261
  WS02006116           JUNCTION      0.00   649.44     0  03:04           0        9.16       0.244
  WS02006230           JUNCTION     10.28   403.02     0  05:30        0.29        7.33       0.199
  WS02006231           JUNCTION      0.00   392.83     0  05:20           0        7.06       0.226
  WS02006232           JUNCTION      0.00   392.85     0  05:20           0        7.08       0.252
  WS02006234           JUNCTION      0.00   392.93     0  05:20           0        7.09       0.154
  WS02006235           JUNCTION      0.00   392.92     0  05:20           0        7.13       0.169
  WS02006238           JUNCTION      0.00   345.18     0  06:20           0        5.27       0.172
  WS02006240           JUNCTION      0.00   339.40     0  06:20           0        5.27       0.308
  WS02006242           JUNCTION      0.00   336.53     0  06:20           0        5.28       0.357
  WS02006243           JUNCTION      0.00   337.29     0  05:11           0        5.28       0.181
  WS02006245           JUNCTION      0.00   338.17     0  05:11           0        5.29       0.235
  WS02006247           JUNCTION      0.00   338.32     0  05:11           0        5.31       0.200
  WS02006248           JUNCTION      0.00   338.93     0  05:11           0        5.31       0.150
  WS02006249           JUNCTION      0.00   453.75     0  02:30           0         6.2       0.234
  WS02006239           JUNCTION      0.00   344.22     0  06:20           0        5.27       0.282
  WS02006251           JUNCTION      0.08   454.36     0  02:30     0.00217        6.23       0.230
  WS02006252           JUNCTION      0.00   400.00     0  04:10           0        5.86       0.009
  WS02006253           JUNCTION      1.91    81.00     0  03:01     0.00814       0.381       2.222
  WS02006256           JUNCTION      0.00   600.00     0  02:07           0        6.08       0.051
  WS02004138           JUNCTION      0.00   380.00     0  00:00           0        6.81       0.086
  WS02004407           JUNCTION      0.00   645.28     0  03:05           0           9       0.099
  WS02006228           JUNCTION      0.00   637.58     0  03:03           0        9.19       0.175
  WS02006229           JUNCTION      0.00   636.21     0  03:02           0        9.21       0.143
  WS02006280           JUNCTION      0.00   375.54     0  03:02           0        1.89       0.004
  WS02006284           JUNCTION      0.10   375.54     0  03:02      0.0027        1.89       0.064
  WS02006287           JUNCTION      0.00   375.26     0  03:01           0        1.89       0.037
  WSF200               JUNCTION      0.00   642.88     0  03:07           0        8.86       0.058
  HS02004901           JUNCTION     17.47    17.47     0  03:01      0.0757      0.0759       2.380
  HS02004881           JUNCTION      7.55    79.19     0  03:01      0.0331       0.357       0.078
  HS02004876           JUNCTION     14.15    72.10     0  03:01      0.0636       0.324       0.171
  HS02004870           JUNCTION     14.17    58.27     0  03:01      0.0626       0.261       0.043
  HS02004862           JUNCTION     13.95    44.46     0  03:01      0.0685       0.198       0.088
  HS02004856           JUNCTION     10.64    30.79     0  03:01      0.0471       0.131       1.116
  HS02004852           JUNCTION      0.00    20.44     0  03:01           0       0.084       0.069
  HS02004848           JUNCTION     32.07    32.07     0  03:01       0.151       0.151       0.033
  HS02004842           JUNCTION      0.00    11.42     0  03:01           0      0.0801      19.389
  HS02004837           JUNCTION     30.75    41.91     0  03:01       0.288       0.355       0.230
  HS02004830           JUNCTION      0.15    41.84     0  03:01     0.00423       0.346       0.359
  HS02004824           JUNCTION     40.25    81.79     0  03:01       0.197       0.542       0.100
  HS02004817           JUNCTION      0.60    82.18     0  03:01      0.0169       0.558       3.079
  HS02004807           JUNCTION     26.15   107.24     0  03:01       0.115       0.657       0.656
  HS02004802           JUNCTION      0.00   106.49     0  03:01           0       0.653       0.618
  HS02004799           JUNCTION     21.02   227.51     0  03:01      0.0932        1.06       0.236
  HS02004792           JUNCTION     88.55   207.32     0  03:01       0.396       0.966       0.043
  HS02004788           JUNCTION     30.78   119.37     0  03:01       0.177       0.571       0.069
  HS02004785           JUNCTION      0.15    89.79     0  03:01     0.00423       0.396       0.125
  HS02004777           JUNCTION      0.03    90.24     0  03:01    0.000846       0.397       1.326
  HS02004770           JUNCTION     73.89    90.93     0  03:01       0.324       0.398       0.787
  HS02004480           JUNCTION      0.00   269.27     0  03:01           0        1.25       0.099
  HS02004479           JUNCTION      0.00    42.82     0  03:02           0       0.204       0.361
  HS02004478           JUNCTION      0.00   375.17     0  03:01           0        1.89       0.018
  YS02001745           JUNCTION    297.18   355.74     0  02:44        2.34        2.34       0.403
  YS02001748           JUNCTION      0.04   572.98     0  02:44     0.00127        2.33       0.988
  YS02001751           JUNCTION      0.01   332.65     0  02:36     0.00031        2.31       1.026
  YS02001754           JUNCTION      0.26   308.05     0  03:00     0.00733        2.29       1.088
  YS02001762           JUNCTION      0.00   346.87     0  02:57           0        1.91       1.109
  YS02001765           JUNCTION      0.00   347.06     0  02:57           0        1.92       1.284
  YS02001767           JUNCTION      0.54   346.84     0  02:57      0.0151        1.94       1.869
  YS02001770           JUNCTION    373.02   373.02     0  03:01        2.63        2.72       1.168
  YS02001774           JUNCTION      0.00   286.46     0  03:45           0       0.846       3.055
  YS02001779           JUNCTION      0.01   286.66     0  03:44    0.000141       0.813       1.909
  YS02001882           JUNCTION      0.00    66.60     0  02:49           0      0.0165      15.887
  YS02001884           JUNCTION      0.00    58.19     0  02:49           0      0.0518      13.272
  YS02001759           JUNCTION    359.84   683.24     0  02:57        2.43        4.23       0.544
  YS02001887           JUNCTION    453.35   453.42     0  03:01         2.8        2.83       0.299
  YS02001890           JUNCTION      0.00   453.57     0  03:01           0        2.79       0.330
  YS02001898           JUNCTION      0.00   453.62     0  03:01           0        2.77       0.116
  YS02001901           JUNCTION      0.00   453.58     0  03:01           0        2.77       0.248
  YS02001904           JUNCTION      0.00   453.57     0  03:01           0        2.77       0.225
  YS02001907           JUNCTION      0.00   901.85     0  02:56           0        6.12       0.393
  YS02001910           JUNCTION      0.00   478.41     0  02:56           0        3.37       0.347
  YS02001915           JUNCTION    263.65   478.28     0  02:56        1.96         3.4       0.179
  YS02001918           JUNCTION      0.00   234.37     0  02:56           0        1.45       0.125
  YS02001619           JUNCTION    257.27   257.27     0  03:01        1.95        1.95       0.627
  YS02001629           JUNCTION      0.00   211.88     0  02:50           0        1.64       1.784
  YS02001641           JUNCTION      0.00   446.95     0  02:50           0        3.85       0.549
  YS02001644           JUNCTION    282.70   960.29     0  03:31        2.25        7.49       0.350
  YS02001652           JUNCTION      0.00   371.51     0  03:01           0        2.04       1.135
  YS02001655           JUNCTION      0.15   371.29     0  03:01     0.00434        2.07       1.242
  YS02001920           JUNCTION      2.87   234.53     0  02:56      0.0809        1.44       0.204
  YS02001923           JUNCTION      0.04   237.34     0  02:56     0.00106        1.35       0.042
  YS02001926           JUNCTION      0.05   174.51     0  02:56     0.00147        1.34       0.257
  YS02001929           JUNCTION    129.40   129.40     0  03:01        1.34        1.34       0.040
  YS02001658           JUNCTION      0.00   481.93     0  02:42           0        2.08       1.085
  YS02001661           JUNCTION      0.00   701.85     0  02:56           0         2.8      -0.123
  YS02001664           JUNCTION    327.80   356.26     0  02:56        2.09         2.8       0.184
  YS02001622           JUNCTION      0.00   257.57     0  03:01           0        1.94       1.663
  YS02001633           JUNCTION    287.40   446.91     0  02:50        2.32        3.91       0.827
  YS02001649           JUNCTION      0.00   953.25     0  02:51           0        5.07       0.737
  YS02001757           JUNCTION      0.00  1818.30     0  02:52           0        9.98       0.934
  YS02001895           JUNCTION      0.00   453.63     0  03:01           0        2.78       0.178
  YS02001625           JUNCTION      0.00   257.37     0  03:01           0         1.9       2.061
  YS02163301           JUNCTION      0.00   212.01     0  02:50           0        1.62       1.503
  YS02163601           JUNCTION      0.11   446.90     0  02:50      0.0031        3.87       0.782
  YS02164001           JUNCTION      0.00   446.95     0  02:50           0        3.85       0.521
  YS02001647           JUNCTION      0.00   678.73     0  02:50           0        3.84       0.738
  YSB1154              JUNCTION     25.19    25.19     0  03:01       0.113       0.114       1.286
  YSB6556              JUNCTION      0.00    24.91     0  03:01           0       0.115       1.100
  YSB1174              JUNCTION     19.06    19.06     0  03:01      0.0821      0.0827       1.581
  YSB1171              JUNCTION      0.00    43.19     0  03:01           0       0.203       3.220
  YS02006553           JUNCTION      0.00   666.58     0  03:17           0        5.91       0.263
  YS02006561           JUNCTION      0.00   964.22     0  02:59           0        8.43       0.009
  YS02006556           JUNCTION      0.00   666.50     0  03:16           0        5.92       0.191
  YS02006558           JUNCTION    392.87   964.57     0  02:59        2.57        8.46       0.062
  YS02001783           JUNCTION      0.00   964.31     0  03:00           0        8.43       0.029
  YS02001784           JUNCTION      1.06   965.20     0  02:59      0.0299        8.46       0.044
  YS02001786           JUNCTION      0.06   965.19     0  03:00     0.00159        8.46       0.040
  YS02001788           JUNCTION      0.07   965.32     0  03:00       0.002        8.45       0.021
  YS02001790           JUNCTION      0.15   965.51     0  03:00     0.00437        8.46       0.028
  YS02001791           JUNCTION      0.00   965.50     0  03:00           0        8.45       0.009
  YS02001793           JUNCTION      0.00   966.44     0  03:00           0        8.45       0.004
  WS02004139           JUNCTION      0.32   393.28     0  00:00     0.00905        6.82       0.596
  WSC                  OUTFALL       0.00   916.64     0  03:14           0        16.1       0.000
  3                    OUTFALL       0.00   531.90     0  02:31           0        4.18       0.000
  4                    OUTFALL       0.00   202.50     0  02:30           0       0.876       0.000
  5                    OUTFALL       0.00     0.00     0  00:00           0           0       0.000 ltr
  JK-storage           STORAGE       0.00   965.63     0  03:00           0         8.6      -7.659
  CC-storage           STORAGE       0.00  1818.43     0  02:52           0        9.23       0.658
  XR-storage           STORAGE     690.11   690.11     0  03:01        9.61        10.2      -0.001
  
  
  **********************
  Node Surcharge Summary
  **********************
  
  Surcharging occurs when water rises above the top of the highest conduit.
  ---------------------------------------------------------------------
                                               Max. Height   Min. Depth
                                   Hours       Above Crown    Below Rim
  Node                 Type      Surcharged         Meters       Meters
  ---------------------------------------------------------------------
  WS02004404           JUNCTION        0.77          0.043        2.737
  WS02004406           JUNCTION        0.46          0.017        2.433
  WS02004405           JUNCTION        0.68          0.030        2.770
  WS02006109           JUNCTION        3.05          0.264        1.556
  WS02006110           JUNCTION        1.16          0.091        1.759
  WS02006112           JUNCTION        1.24          0.188        1.492
  WS02006230           JUNCTION        0.71          0.059        1.511
  WS02006231           JUNCTION        1.08          0.083        1.447
  WS02006232           JUNCTION        3.27          0.216        1.264
  WS02006234           JUNCTION        1.17          0.121        1.119
  WS02006235           JUNCTION        2.50          0.159        1.131
  WS02006238           JUNCTION        2.82          0.179        1.251
  WS02006240           JUNCTION        1.05          0.092        1.298
  WS02006242           JUNCTION        2.53          0.129        0.691
  WS02006243           JUNCTION        0.38          0.033        0.737
  WS02006247           JUNCTION        0.02          0.003        0.757
  WS02006239           JUNCTION        1.64          0.118        1.172
  WS02006252           JUNCTION        3.08          0.193        0.907
  WS02006228           JUNCTION        2.96          0.323        1.877
  YS02001748           JUNCTION        5.03          1.140        0.050
  YS02001751           JUNCTION        5.16          1.086        0.114
  YS02001754           JUNCTION        5.36          0.997        0.153
  YS02001762           JUNCTION        5.63          1.030        0.120
  YS02001765           JUNCTION        5.61          0.975        0.125
  YS02001767           JUNCTION        5.54          0.935        0.095
  YS02001770           JUNCTION        5.43          0.880        0.040
  YS02001774           JUNCTION        5.63          0.976        0.074
  YS02001779           JUNCTION        5.33          0.680        0.000
  YS02001882           JUNCTION        0.74          0.635        0.195
  YS02001884           JUNCTION        0.77          0.668        0.202
  YS02001759           JUNCTION        5.66          1.066        0.144
  YS02001887           JUNCTION        0.87          0.750        0.200
  YS02001890           JUNCTION        0.91          0.760        0.000
  YS02001898           JUNCTION        0.70          0.533        0.207
  YS02001901           JUNCTION        0.82          0.671        0.199
  YS02001904           JUNCTION        0.80          0.635        0.215
  YS02001907           JUNCTION        1.49          0.950        0.000
  YS02001910           JUNCTION        0.95          0.783        0.317
  YS02001915           JUNCTION        0.72          0.599        0.401
  YS02001918           JUNCTION        0.49          0.295        0.515
  YS02001619           JUNCTION        5.20          0.610        0.000
  YS02001629           JUNCTION        5.20          0.470        0.000
  YS02001641           JUNCTION        5.62          0.963        0.137
  YS02001644           JUNCTION        5.62          0.920        0.000
  YS02001652           JUNCTION        5.40          1.130        0.000
  YS02001655           JUNCTION        5.21          1.200        0.000
  YS02001920           JUNCTION        0.53          0.355        0.785
  YS02001658           JUNCTION        5.06          1.300        0.000
  YS02001661           JUNCTION        0.22          1.390        0.000
  YS02001622           JUNCTION        5.23          0.578        0.042
  YS02001633           JUNCTION        5.60          0.974        0.086
  YS02001649           JUNCTION        5.64          1.050        0.000
  YS02001757           JUNCTION        5.74          1.175        0.035
  YS02001895           JUNCTION        0.72          0.567        0.183
  YS02001625           JUNCTION        5.40          0.780        0.000
  YS02163301           JUNCTION        5.53          0.915        0.115
  YS02163601           JUNCTION        5.64          1.043        0.037
  YS02164001           JUNCTION        5.61          0.969        0.131
  YS02001647           JUNCTION        5.40          0.806        0.094
  YS02006553           JUNCTION        1.55          0.964        0.226
  YS02006561           JUNCTION        0.61          0.307        0.843
  YS02006556           JUNCTION        1.20          0.881        0.469
  YS02006558           JUNCTION        1.16          0.858        0.542
  YS02001783           JUNCTION        1.12          0.901        0.699
  YS02001784           JUNCTION        1.15          1.093        0.397
  YS02001786           JUNCTION        1.10          1.430        0.000
  YS02001788           JUNCTION        1.09          1.480        0.000
  YS02001790           JUNCTION        2.20          1.157        0.000
  YS02001791           JUNCTION        2.28          1.920        0.000
  YS02001793           JUNCTION        2.53          1.187        1.413
  
  
  *********************
  Node Flooding Summary
  *********************
  
  Flooding refers to all water that overflows a node, whether it ponds or not.
  --------------------------------------------------------------------------
                                                             Total   Maximum
                                 Maximum   Time of Max       Flood    Ponded
                        Hours       Rate    Occurrence      Volume     Depth
  Node                 Flooded       LPS   days hr:min    10^6 ltr    Meters
  --------------------------------------------------------------------------
  YS02001779              2.12    286.59      0  03:44       0.790     0.000
  YS02001890              0.01      4.55      0  02:54       0.000     0.000
  YS02001907              0.35    326.95      0  03:00       0.196     0.000
  YS02001619              0.01      7.35      0  02:42       0.000     0.000
  YS02001629              0.01     36.62      0  02:42       0.000     0.000
  YS02001644              3.58    960.03      0  03:31       5.029     0.000
  YS02001652              0.01     23.89      0  03:07       0.000     0.000
  YS02001655              0.01     23.45      0  03:05       0.000     0.000
  YS02001658              0.01     10.12      0  03:05       0.000     0.000
  YS02001661              0.01    187.60      0  03:07       0.001     0.000
  YS02001649              0.08     51.34      0  03:07       0.005     0.000
  YS02001625              0.85    167.69      0  03:01       0.228     0.000
  YS02001786              0.01     43.54      0  02:48       0.000     0.000
  YS02001788              0.01    177.42      0  02:48       0.000     0.000
  YS02001790              0.01    201.72      0  02:48       0.000     0.000
  YS02001791              0.01    179.98      0  04:44       0.000     0.000
  JK-storage              2.02    965.41      0  02:59       3.243     0.000
  XR-storage              3.22    490.65      0  03:01       2.498     0.000
  
  
  **********************
  Storage Volume Summary
  **********************
  
  --------------------------------------------------------------------------------------------------
                         Average     Avg  Evap Exfil       Maximum     Max    Time of Max    Maximum
                          Volume    Pcnt  Pcnt  Pcnt        Volume    Pcnt     Occurrence    Outflow
  Storage Unit           1000 m3    Full  Loss  Loss       1000 m3    Full    days hr:min        LPS
  --------------------------------------------------------------------------------------------------
  JK-storage               0.132      45     0     0         0.291     100       0  02:48     600.00
  CC-storage               2.889      18     0     0         3.855      25       0  03:41     400.00
  XR-storage               0.858      93     0     0         0.926     100       0  02:28     380.00
  
  
  ***********************
  Outfall Loading Summary
  ***********************
  
  -----------------------------------------------------------
                         Flow       Avg       Max       Total
                         Freq      Flow      Flow      Volume
  Outfall Node           Pcnt       LPS       LPS    10^6 ltr
  -----------------------------------------------------------
  WSC                   99.99    637.78    916.64      16.084
  3                     89.15    219.34    531.90       4.185
  4                     54.32     73.15    202.50       0.876
  5                      0.00      0.00      0.00       0.000
  -----------------------------------------------------------
  System                60.87    930.28   1537.88      21.145
  
  
  ********************
  Link Flow Summary
  ********************
  
  -----------------------------------------------------------------------------
                                 Maximum  Time of Max   Maximum    Max/    Max/
                                  |Flow|   Occurrence   |Veloc|    Full    Full
  Link                 Type          LPS  days hr:min     m/sec    Flow   Depth
  -----------------------------------------------------------------------------
  WS02003066WSF200     CONDUIT    642.88     0  03:07      2.85    0.11    0.26
  WS02006287WS02006284 CONDUIT    375.44     0  03:02      1.98    0.17    0.29
  WS02006284WS02006280 CONDUIT    375.54     0  03:02      2.22    0.16    0.27
  WS02006280WS02006229 CONDUIT    375.57     0  03:02      3.58    0.08    0.19
  WS02006229WS02006228 CONDUIT    637.58     0  03:03      1.27    2.11    1.00
  WS02006256WS02006235 CONDUIT    166.25     0  00:01      2.58    1.76    1.00
  WS02006253WS02006251 CONDUIT     79.62     0  03:00      0.46    0.24    0.98
  WS02006252WS02006251 CONDUIT    400.64     0  05:10      3.19    1.47    1.00
  WS02006251WS02006249 CONDUIT    453.75     0  02:30      1.20    1.31    0.95
  WS02006249WS02006248 CONDUIT    338.93     0  05:11      1.10    1.86    0.91
  WS02006248WS02006247 CONDUIT    338.32     0  05:11      1.05    0.74    0.96
  WS02006247WS02006245 CONDUIT    338.17     0  05:11      1.00    2.68    1.00
  WS02006245WS02006243 CONDUIT    337.29     0  05:11      1.03    1.00    1.00
  WS02006243WS02006242 CONDUIT    336.53     0  06:20      0.93    0.72    1.00
  WS02006242WS02006240 CONDUIT    339.40     0  06:20      0.91    1.35    1.00
  WS02006240WS02006239 CONDUIT    344.22     0  06:20      0.95    1.08    1.00
  WS02006239WS02006238 CONDUIT    345.18     0  06:20      0.91    1.10    1.00
  WS02006238WS02006235 CONDUIT    344.89     0  06:20      1.25    0.77    1.00
  WS02006235WS02006234 CONDUIT    392.93     0  05:20      1.03    4.15    1.00
  WS02006234WS02006232 CONDUIT    392.85     0  05:20      1.13    0.79    1.00
  WS02006232WS02006231 CONDUIT    392.83     0  05:20      1.06    0.82    1.00
  WS02006231WS02006230 CONDUIT    392.75     0  05:30      1.32    5.96    1.00
  WS02006230WS02006229 CONDUIT    403.05     0  05:30      1.05    8.97    1.00
  WS02006228WS02006109 CONDUIT    637.50     0  03:03      1.27    2.79    1.00
  WS02006116WS02004401 CONDUIT    649.29     0  03:04      0.85    0.89    0.94
  WS02006115WS02006116 CONDUIT    649.44     0  03:04      0.90    0.83    0.87
  WS02006113WS02006111 CONDUIT    670.73     0  03:03      2.59    0.80    0.52
  WS02006112WS02006115 CONDUIT    655.23     0  03:04      0.86    0.39    0.93
  WS02006111WS02006112 CONDUIT    643.34     0  03:04      1.72    0.31    0.71
  WS02006110WS02006113 CONDUIT    639.93     0  03:03      1.46    0.58    0.81
  WS02006109WS02006110 CONDUIT    638.69     0  03:03      1.27    1.23    1.00
  WS02004411WS02004412 CONDUIT    643.02     0  03:06      1.01    0.91    0.75
  WS02004401WS02004402 CONDUIT    647.79     0  03:04      0.84    0.78    0.96
  WS02004413WS02003067 CONDUIT    642.85     0  03:07      1.23    0.28    0.63
  WS02004412WS02004413 CONDUIT    643.19     0  03:07      0.92    0.43    0.83
  WS02004410WS02004411 CONDUIT    643.54     0  03:07      1.02    0.88    0.75
  WS02004409WS02004410 CONDUIT    644.12     0  03:05      1.03    0.83    0.74
  WS02004407WS02004409 CONDUIT    644.58     0  03:05      1.52    0.23    0.53
  WS02004406WS02004407 CONDUIT    645.28     0  03:05      1.17    0.29    0.66
  WS02004405WS02004406 CONDUIT    644.95     0  03:05      0.82    1.27    1.00
  WS02004404WS02004405 CONDUIT    644.83     0  03:05      0.84    6.32    1.00
  WS02004403WS02004404 CONDUIT    644.53     0  03:05      0.82    0.47    0.99
  WS02004402WS02004403 CONDUIT    645.20     0  03:05      0.83    0.93    0.97
  WS02004139WS02001211 CONDUIT    380.92     0  06:49      0.90    0.48    0.58
  WS02004138WS02004139 CONDUIT    392.96     0  00:00      3.64    0.08    0.43
  WS02003067WS02003066 CONDUIT    642.80     0  03:08      1.33    0.21    0.44
  WS02001213WS02003059 CONDUIT    390.57     0  06:48      0.90    0.64    0.75
  WS02001212WS02001213 CONDUIT    389.52     0  06:48      1.31    0.60    0.45
  WS02001211WS02001212 CONDUIT    388.94     0  06:49      0.78    0.30    0.63
  WS02003072WS02003073 CONDUIT    914.93     0  03:13      1.71    1.98    0.48
  WS02003069WS02003072 CONDUIT    915.03     0  03:13      1.61    0.44    0.50
  WS02003060WS02003069 CONDUIT    915.04     0  03:12      1.85    0.36    0.45
  WS02003059WS02003060 CONDUIT    391.95     0  06:47      0.93    0.26    0.64
  HS02004901HS02004770 CONDUIT     17.71     0  03:01      0.07    0.07    0.39
  HS02004876HS02004881 CONDUIT     71.90     0  03:01      0.92    0.76    0.11
  HS02004870HS02004876 CONDUIT     58.03     0  03:01      0.63    0.04    0.13
  HS02004842HS02004848 CONDUIT     11.42     0  03:01      0.05    0.01    0.30
  HS02004837HS02004842 CONDUIT     11.94     0  03:02      0.41    0.01    0.32
  HS02004830HS02004837 CONDUIT     41.69     0  03:01      0.56    0.04    0.11
  HS02004824HS02004830 CONDUIT     41.67     0  03:01      0.58    0.05    0.10
  HS02004817HS02004824 CONDUIT     81.58     0  03:01      0.25    0.04    0.47
  HS02004770HS02004777 CONDUIT     90.21     0  03:01      0.32    0.16    0.41
  HS02004799HS02004480 CONDUIT    226.97     0  03:01      0.78    0.29    0.42
  HS02004792HS02004799 CONDUIT    206.60     0  03:01      0.88    0.13    0.33
  HS02004788HS02004792 CONDUIT    118.94     0  03:01      1.01    0.08    0.17
  HS02004785HS02004788 CONDUIT     89.52     0  03:02      0.66    0.67    0.19
  HS02004777HS02004785 CONDUIT     89.64     0  03:01      0.38    0.11    0.33
  HS02004480HS02004478 CONDUIT    269.12     0  03:01      1.20    1.13    0.32
  HS02004479HS02004480 CONDUIT     44.17     0  03:02      0.23    0.04    0.40
  HS02004862HS02004870 CONDUIT     44.23     0  03:01      0.64    0.05    0.10
  HS02004848HS02004852 CONDUIT     20.44     0  03:01      0.44    0.02    0.07
  HS02004856HS02004862 CONDUIT     30.57     0  03:01      0.47    0.03    0.09
  HS02004852HS02004856 CONDUIT     20.26     0  03:01      0.24    0.02    0.12
  HS02004802HS02004478 CONDUIT    106.59     0  03:02      0.45    0.09    0.35
  HS02004478WS02006287 CONDUIT    375.26     0  03:01      1.68    0.11    0.25
  HS02004817HS02004807 CONDUIT     82.18     0  03:01      0.19    0.05    0.62
  HS02004807HS02004802 CONDUIT    106.49     0  03:01      0.38    0.20    0.40
  YS02001759YS02001757 CONDUIT    683.38     0  02:57      0.87    0.49    1.00
  YS02001762YS02001759 CONDUIT    347.08     0  02:57      0.44    0.40    1.00
  YS02001765YS02001762 CONDUIT    346.87     0  02:57      0.44    0.33    1.00
  YS02001770YS02001767 CONDUIT    346.30     0  02:57      0.44    1.37    1.00
  YS02001774YS02001770 CONDUIT    286.46     0  03:45      0.36    0.18    1.00
  YS02001779YS02001774 CONDUIT    286.66     0  03:44      0.36    0.14    1.00
  YS02001649YS02001757 CONDUIT    953.68     0  02:51      1.21    0.58    1.00
  YS02001767YS02001765 CONDUIT    347.06     0  02:57      0.44    0.44    1.00
  YS02006561YS02001783 CONDUIT    964.31     0  03:00      2.16    0.50    1.00
  YS02001783YS02001784 CONDUIT    964.14     0  02:59      1.92    1.33    1.00
  YS02001784YS02001785 CONDUIT    965.13     0  03:00      1.92    2.25    1.00
  YS02001788YS02001790 CONDUIT    965.35     0  03:00      2.40    0.71    1.00
  YS02001790YS02001791 CONDUIT    965.50     0  03:00      3.00    1.05    1.00
  YS02001791YS02001793 CONDUIT    966.44     0  03:00      5.89    0.41    1.00
  YS02001910YS02001907 CONDUIT    478.38     0  02:56      0.61    0.27    1.00
  YS02001786YS02001788 CONDUIT    965.24     0  03:00      2.29    1.86    1.00
  YS02001915YS02001910 CONDUIT    478.41     0  02:56      0.61    0.24    1.00
  YS02001918YS02001915 CONDUIT    234.64     0  02:56      0.44    0.13    1.00
  YS02001923YS02001920 CONDUIT    231.66     0  02:56      0.68    0.10    1.00
  YS02001926YS02001923 CONDUIT    237.30     0  02:56      0.79    0.34    0.92
  YS02001929YS02001926 CONDUIT    174.46     0  02:56      0.85    0.08    0.81
  YS02001920YS02001918 CONDUIT    234.37     0  02:56      0.67    0.23    1.00
  YS02001629YS02163301 CONDUIT    212.01     0  02:50      0.27    0.26    1.00
  YS02001619YS02001622 CONDUIT    257.57     0  03:01      0.61    0.38    1.00
  YS02001622YS02001625 CONDUIT    257.37     0  03:01      0.33    0.14    1.00
  YS02001625YS02001629 CONDUIT    211.88     0  02:50      0.27    0.10    1.00
  YS02163301YS02001633 CONDUIT    212.15     0  02:50      0.27    0.20    1.00
  YS02163601YS02164001 CONDUIT    446.95     0  02:50      0.57    0.40    1.00
  YS02164001YS02001641 CONDUIT    446.95     0  02:50      0.57    0.61    1.00
  YS02001641YS02001644 CONDUIT    447.16     0  02:50      0.57    1.45    1.00
  YS02001647YS02001649 CONDUIT    679.02     0  02:50      0.86    0.36    1.00
  YS02006553YS02006556 CONDUIT    666.50     0  03:16      0.85    0.57    1.00
  YS02006556YS02006558 CONDUIT    666.61     0  03:17      0.85    0.53    1.00
  YSB6556YSB1171       CONDUIT     24.81     0  03:03      0.09    0.03    0.67
  YS02001907YS02006553 CONDUIT    666.58     0  03:17      0.74    0.78    1.00
  YS02006558YS02006561 CONDUIT    964.22     0  02:59      3.48    2.13    1.00
  YS02001633YS02163601 CONDUIT    446.79     0  02:50      0.57    0.47    1.00
  YS02001644YS02001647 CONDUIT    678.73     0  02:50      0.86    0.40    1.00
  YS02001745YS02001748 CONDUIT    572.94     0  02:44      1.48    0.22    0.94
  YS02001748YS02001751 CONDUIT    332.64     0  02:36      1.05    0.17    1.00
  YS02001751YS02001754 CONDUIT    307.79     0  03:00      0.88    0.15    1.00
  YS02001754YS02001757 CONDUIT    308.02     0  03:00      0.39    0.12    1.00
  YS02001882YS02001884 CONDUIT     66.60     0  02:49      0.09    0.08    1.00
  YS02001884YS02001887 CONDUIT     58.19     0  02:49      0.07    0.08    1.00
  YS02001890YS02001895 CONDUIT    453.63     0  03:01      0.58    0.21    1.00
  YS02001895YS02001898 CONDUIT    453.62     0  03:01      0.58    0.79    1.00
  YS02001898YS02001901 CONDUIT    453.58     0  03:01      0.58    0.29    1.00
  YS02001901YS02001904 CONDUIT    453.57     0  03:01      0.58    0.70    1.00
  YS02001904YS02001907 CONDUIT    453.72     0  03:01      0.58    0.16    1.00
  YS02001887YS02001890 CONDUIT    453.57     0  03:01      0.58    0.78    1.00
  YS02001652YS02001649 CONDUIT    371.54     0  03:01      0.50    0.18    1.00
  YS02001655YS02001652 CONDUIT    371.51     0  03:01      0.93    0.18    1.00
  YS02001658YS02001655 CONDUIT    371.13     0  03:01      1.21    0.16    1.00
  YS02001661YS02001658 CONDUIT    481.93     0  02:42      1.56    0.19    1.00
  YS02001664YS02001661 CONDUIT    701.85     0  02:56      1.62    0.22    0.71
  YSB1154YSB6556       CONDUIT     24.91     0  03:01      0.18    0.04    0.56
  YSB1174YSB1171       CONDUIT     18.78     0  03:01      0.07    0.03    0.68
  YSB1171HS02004479    CONDUIT     42.82     0  03:02      0.54    0.03    0.53
  HS02004881HS02006253 CONDUIT     79.15     0  03:01      1.62    0.02    0.29
  YS02001793JiankangQianchi CONDUIT    965.63     0  03:00     14.36    0.08    1.00
  YS02001757CaochengTiaoxuchi CONDUIT   1818.43     0  02:52      2.48    0.80    1.00
  WSF200WS02003060     CONDUIT    643.14     0  03:07      1.99    0.14    0.35
  1                    CONDUIT    916.64     0  03:14      3.25    0.32    0.39
  2                    CONDUIT    202.50     0  02:30      5.86    0.48    0.49
  3                    CONDUIT    531.90     0  02:31      9.88    0.85    0.71
  4                    CONDUIT      0.00     0  00:00      0.00    0.00    0.00
  CC-Pump-1            PUMP       200.00     0  02:30              1.00
  CC-Pump-2            PUMP       200.00     0  01:59              1.00
  JK-Pump-1            PUMP       300.00     0  00:00              1.00
  JK-Pump-2            PUMP       300.00     0  02:07              1.00
  XR-Pump-1            PUMP        95.00     0  00:00              1.00
  XR-Pump-2            PUMP        95.00     0  00:00              1.00
  XR-Pump-3            PUMP        95.00     0  00:00              1.00
  XR-Pump-4            PUMP        95.00     0  00:00              1.00
  
  
  ***************************
  Flow Classification Summary
  ***************************
  
  -------------------------------------------------------------------------------------
                      Adjusted    ---------- Fraction of Time in Flow Class ---------- 
                       /Actual         Up    Down  Sub   Sup   Up    Down  Norm  Inlet 
  Conduit               Length    Dry  Dry   Dry   Crit  Crit  Crit  Crit  Ltd   Ctrl  
  -------------------------------------------------------------------------------------
  WS02003066WSF200        1.00   0.03  0.02  0.00  0.00  0.95  0.00  0.00  0.62  0.00
  WS02006287WS02006284    1.00   0.04  0.01  0.00  0.58  0.37  0.00  0.00  0.65  0.00
  WS02006284WS02006280    1.00   0.04  0.00  0.00  0.00  0.00  0.00  0.96  0.00  0.00
  WS02006280WS02006229    1.00   0.04  0.00  0.00  0.00  0.00  0.00  0.96  0.00  0.00
  WS02006229WS02006228    1.00   0.00  0.00  0.00  0.99  0.00  0.00  0.01  0.00  0.00
  WS02006256WS02006235    1.00   0.00  0.00  0.00  1.00  0.00  0.00  0.00  0.00  0.00
  WS02006253WS02006251    1.00   0.03  0.01  0.00  0.96  0.00  0.00  0.00  0.00  0.00
  WS02006252WS02006251    1.00   0.07  0.00  0.00  0.00  0.00  0.93  0.00  0.00  0.00
  WS02006251WS02006249    1.00   0.00  0.00  0.00  1.00  0.00  0.00  0.00  0.22  0.00
  WS02006249WS02006248    1.00   0.00  0.02  0.00  0.92  0.00  0.06  0.00  0.00  0.00
  WS02006248WS02006247    1.00   0.02  0.00  0.00  0.98  0.00  0.00  0.00  0.11  0.00
  WS02006247WS02006245    1.00   0.02  0.00  0.00  0.98  0.00  0.00  0.00  0.00  0.00
  WS02006245WS02006243    1.00   0.01  0.00  0.00  0.95  0.00  0.00  0.03  0.01  0.00
  WS02006243WS02006242    1.00   0.01  0.00  0.00  0.99  0.00  0.00  0.00  0.20  0.00
  WS02006242WS02006240    1.00   0.00  0.00  0.00  1.00  0.00  0.00  0.00  0.00  0.00
  WS02006240WS02006239    1.00   0.00  0.00  0.00  0.97  0.00  0.00  0.03  0.01  0.00
  WS02006239WS02006238    1.00   0.00  0.00  0.00  1.00  0.00  0.00  0.00  0.04  0.00
  WS02006238WS02006235    1.00   0.00  0.00  0.00  1.00  0.00  0.00  0.00  0.00  0.00
  WS02006235WS02006234    1.00   0.00  0.00  0.00  0.97  0.00  0.03  0.00  0.00  0.00
  WS02006234WS02006232    1.00   0.00  0.00  0.00  1.00  0.00  0.00  0.00  0.03  0.00
  WS02006232WS02006231    1.00   0.00  0.00  0.00  0.99  0.00  0.00  0.00  0.00  0.00
  WS02006231WS02006230    1.00   0.00  0.00  0.00  0.74  0.00  0.26  0.00  0.00  0.00
  WS02006230WS02006229    1.00   0.00  0.00  0.00  0.99  0.00  0.00  0.01  0.00  0.00
  WS02006228WS02006109    1.00   0.00  0.00  0.00  1.00  0.00  0.00  0.00  0.00  0.00
  WS02006116WS02004401    1.00   0.02  0.00  0.00  0.98  0.00  0.00  0.00  0.00  0.00
  WS02006115WS02006116    1.00   0.02  0.00  0.00  0.97  0.00  0.00  0.01  0.00  0.00
  WS02006113WS02006111    1.00   0.02  0.00  0.00  0.00  0.98  0.00  0.00  0.09  0.00
  WS02006112WS02006115    1.00   0.02  0.00  0.00  0.98  0.00  0.00  0.00  0.00  0.00
  WS02006111WS02006112    1.00   0.02  0.00  0.00  0.98  0.00  0.00  0.00  0.91  0.00
  WS02006110WS02006113    1.00   0.01  0.01  0.00  0.98  0.00  0.00  0.00  0.00  0.00
  WS02006109WS02006110    1.00   0.00  0.01  0.00  0.98  0.00  0.01  0.00  0.00  0.00
  WS02004411WS02004412    1.00   0.03  0.00  0.00  0.97  0.00  0.00  0.00  0.00  0.00
  WS02004401WS02004402    1.00   0.02  0.00  0.00  0.98  0.00  0.00  0.00  0.00  0.00
  WS02004413WS02003067    1.00   0.04  0.01  0.00  0.00  0.00  0.95  0.00  0.00  0.00
  WS02004412WS02004413    1.00   0.04  0.00  0.00  0.96  0.00  0.00  0.00  0.03  0.00
  WS02004410WS02004411    1.00   0.03  0.00  0.00  0.97  0.00  0.00  0.00  0.03  0.00
  WS02004409WS02004410    1.00   0.03  0.00  0.00  0.97  0.00  0.00  0.00  0.03  0.00
  WS02004407WS02004409    1.00   0.03  0.00  0.00  0.96  0.00  0.00  0.00  0.89  0.00
  WS02004406WS02004407    1.00   0.00  0.03  0.00  0.97  0.00  0.00  0.00  0.00  0.00
  WS02004405WS02004406    1.00   0.00  0.00  0.00  1.00  0.00  0.00  0.00  0.01  0.00
  WS02004404WS02004405    1.00   0.00  0.00  0.00  1.00  0.00  0.00  0.00  0.00  0.00
  WS02004403WS02004404    1.00   0.00  0.02  0.00  0.98  0.00  0.00  0.00  0.01  0.00
  WS02004402WS02004403    1.00   0.02  0.00  0.00  0.98  0.00  0.00  0.00  0.00  0.00
  WS02004139WS02001211    1.00   0.00  0.00  0.00  1.00  0.00  0.00  0.00  0.00  0.00
  WS02004138WS02004139    1.00   0.00  0.00  0.00  0.99  0.01  0.00  0.00  1.00  0.00
  WS02003067WS02003066    1.00   0.05  0.01  0.00  0.95  0.00  0.00  0.00  0.00  0.00
  WS02001213WS02003059    1.00   0.00  0.00  0.00  0.99  0.00  0.00  0.00  0.00  0.00
  WS02001212WS02001213    1.00   0.00  0.00  0.00  0.92  0.00  0.08  0.00  0.00  0.00
  WS02001211WS02001212    1.00   0.00  0.00  0.00  1.00  0.00  0.00  0.00  0.00  0.00
  WS02003072WS02003073    1.00   0.00  0.00  0.00  0.00  0.00  0.00  1.00  0.00  0.00
  WS02003069WS02003072    1.00   0.00  0.00  0.00  0.99  0.01  0.00  0.00  0.22  0.00
  WS02003060WS02003069    1.00   0.00  0.00  0.00  0.97  0.03  0.00  0.00  0.11  0.00
  WS02003059WS02003060    1.00   0.00  0.00  0.00  1.00  0.00  0.00  0.00  0.01  0.00
  HS02004901HS02004770    1.00   0.04  0.00  0.00  0.96  0.00  0.00  0.00  0.00  0.00
  HS02004876HS02004881    1.00   0.02  0.00  0.00  0.90  0.08  0.00  0.00  0.00  0.00
  HS02004870HS02004876    1.00   0.00  0.00  0.00  0.99  0.00  0.00  0.00  0.95  0.00
  HS02004842HS02004848    1.00   0.00  0.04  0.00  0.96  0.00  0.00  0.00  0.58  0.00
  HS02004837HS02004842    1.00   0.00  0.00  0.00  0.99  0.01  0.00  0.00  0.11  0.00
  HS02004830HS02004837    1.00   0.00  0.00  0.00  1.00  0.00  0.00  0.00  0.99  0.00
  HS02004824HS02004830    1.00   0.00  0.00  0.00  1.00  0.00  0.00  0.00  0.00  0.00
  HS02004817HS02004824    1.00   0.00  0.00  0.00  1.00  0.00  0.00  0.00  1.00  0.00
  HS02004770HS02004777    1.00   0.00  0.04  0.00  0.96  0.00  0.00  0.00  0.03  0.00
  HS02004799HS02004480    1.00   0.00  0.02  0.00  0.95  0.00  0.02  0.00  0.00  0.00
  HS02004792HS02004799    1.00   0.00  0.00  0.00  0.99  0.01  0.00  0.00  0.98  0.00
  HS02004788HS02004792    1.00   0.00  0.00  0.00  0.99  0.01  0.00  0.00  0.98  0.00
  HS02004785HS02004788    1.00   0.00  0.00  0.00  1.00  0.00  0.00  0.00  0.00  0.00
  HS02004777HS02004785    1.00   0.00  0.00  0.00  1.00  0.00  0.00  0.00  0.14  0.00
  HS02004480HS02004478    1.00   0.04  0.00  0.00  0.65  0.00  0.00  0.31  0.00  0.00
  HS02004479HS02004480    1.00   0.02  0.00  0.00  0.98  0.00  0.00  0.00  0.13  0.00
  HS02004862HS02004870    1.00   0.00  0.00  0.00  1.00  0.00  0.00  0.00  0.05  0.00
  HS02004848HS02004852    1.00   0.04  0.00  0.00  0.96  0.00  0.00  0.00  0.61  0.00
  HS02004856HS02004862    1.00   0.00  0.05  0.00  0.95  0.00  0.00  0.00  0.80  0.00
  HS02004852HS02004856    1.00   0.04  0.00  0.00  0.96  0.00  0.00  0.00  0.85  0.00
  HS02004802HS02004478    1.00   0.04  0.00  0.00  0.96  0.00  0.00  0.00  0.03  0.00
  HS02004478WS02006287    1.00   0.05  0.00  0.00  0.71  0.25  0.00  0.00  0.66  0.00
  HS02004817HS02004807    1.00   0.00  0.04  0.00  0.96  0.00  0.00  0.00  0.01  0.00
  HS02004807HS02004802    1.00   0.04  0.00  0.00  0.96  0.00  0.00  0.00  0.00  0.00
  YS02001759YS02001757    1.00   0.00  0.00  0.00  1.00  0.00  0.00  0.00  0.16  0.00
  YS02001762YS02001759    1.00   0.00  0.00  0.00  1.00  0.00  0.00  0.00  0.04  0.00
  YS02001765YS02001762    1.00   0.00  0.00  0.00  1.00  0.00  0.00  0.00  0.16  0.00
  YS02001770YS02001767    1.00   0.00  0.00  0.00  1.00  0.00  0.00  0.00  0.00  0.00
  YS02001774YS02001770    1.00   0.00  0.04  0.00  0.96  0.00  0.00  0.00  0.04  0.00
  YS02001779YS02001774    1.00   0.00  0.00  0.00  1.00  0.00  0.00  0.00  0.21  0.00
  YS02001649YS02001757    1.00   0.00  0.00  0.00  1.00  0.00  0.00  0.00  0.17  0.00
  YS02001767YS02001765    1.00   0.00  0.00  0.00  1.00  0.00  0.00  0.00  0.00  0.00
  YS02006561YS02001783    1.00   0.05  0.00  0.00  0.38  0.57  0.00  0.00  0.55  0.00
  YS02001783YS02001784    1.00   0.00  0.05  0.00  0.95  0.00  0.00  0.00  0.01  0.00
  YS02001784YS02001785    1.00   0.00  0.00  0.00  1.00  0.00  0.00  0.00  0.20  0.00
  YS02001788YS02001790    1.00   0.00  0.00  0.00  0.42  0.58  0.00  0.00  0.49  0.00
  YS02001790YS02001791    1.00   0.00  0.00  0.00  0.40  0.60  0.00  0.00  0.41  0.00
  YS02001791YS02001793    1.00   0.00  0.00  0.00  0.41  0.59  0.00  0.00  0.01  0.00
  YS02001910YS02001907    1.00   0.00  0.00  0.00  0.98  0.00  0.00  0.02  0.13  0.00
  YS02001786YS02001788    1.00   0.00  0.00  0.00  0.40  0.60  0.00  0.00  0.00  0.00
  YS02001915YS02001910    1.00   0.00  0.00  0.00  0.99  0.01  0.00  0.00  0.18  0.00
  YS02001918YS02001915    1.00   0.00  0.01  0.00  0.98  0.01  0.00  0.00  0.58  0.00
  YS02001923YS02001920    1.00   0.00  0.00  0.00  1.00  0.00  0.00  0.00  0.86  0.00
  YS02001926YS02001923    1.00   0.00  0.03  0.00  0.12  0.00  0.85  0.00  0.00  0.00
  YS02001929YS02001926    1.00   0.00  0.04  0.00  0.96  0.00  0.00  0.00  0.79  0.00
  YS02001920YS02001918    1.00   0.00  0.01  0.00  0.99  0.00  0.00  0.00  0.00  0.00
  YS02001629YS02163301    1.00   0.05  0.00  0.00  0.95  0.00  0.00  0.00  0.00  0.00
  YS02001619YS02001622    1.00   0.04  0.00  0.00  0.96  0.00  0.00  0.00  0.00  0.00
  YS02001622YS02001625    1.00   0.04  0.00  0.00  0.96  0.00  0.00  0.00  0.07  0.00
  YS02001625YS02001629    1.00   0.04  0.01  0.00  0.93  0.00  0.01  0.00  0.00  0.00
  YS02163301YS02001633    1.00   0.00  0.05  0.00  0.95  0.00  0.00  0.00  0.00  0.00
  YS02163601YS02164001    1.00   0.00  0.03  0.00  0.97  0.00  0.00  0.00  0.00  0.00
  YS02164001YS02001641    1.00   0.01  0.02  0.00  0.97  0.00  0.00  0.00  0.06  0.00
  YS02001641YS02001644    1.00   0.00  0.01  0.00  0.99  0.00  0.00  0.00  0.00  0.00
  YS02001647YS02001649    1.00   0.00  0.05  0.00  0.95  0.00  0.00  0.00  0.01  0.00
  YS02006553YS02006556    1.00   0.01  0.00  0.00  0.99  0.00  0.00  0.00  0.03  0.00
  YS02006556YS02006558    1.00   0.00  0.00  0.00  1.00  0.00  0.00  0.00  0.00  0.00
  YSB6556YSB1171          1.00   0.03  0.01  0.00  0.96  0.00  0.00  0.00  0.00  0.00
  YS02001907YS02006553    1.00   0.00  0.02  0.00  0.98  0.00  0.00  0.00  0.00  0.00
  YS02006558YS02006561    1.00   0.05  0.00  0.00  0.15  0.80  0.00  0.00  0.47  0.00
  YS02001633YS02163601    1.00   0.00  0.01  0.00  0.99  0.00  0.00  0.00  0.16  0.00
  YS02001644YS02001647    1.00   0.00  0.05  0.00  0.95  0.00  0.00  0.00  0.00  0.00
  YS02001745YS02001748    1.00   0.00  0.00  0.00  0.89  0.01  0.00  0.10  0.06  0.00
  YS02001748YS02001751    1.00   0.00  0.00  0.00  0.98  0.02  0.00  0.00  0.15  0.00
  YS02001751YS02001754    1.00   0.00  0.00  0.00  0.94  0.00  0.00  0.06  0.02  0.00
  YS02001754YS02001757    1.00   0.00  0.00  0.00  0.99  0.01  0.00  0.00  0.20  0.00
  YS02001882YS02001884    1.00   0.04  0.00  0.00  0.95  0.00  0.00  0.00  0.00  0.00
  YS02001884YS02001887    1.00   0.03  0.01  0.00  0.96  0.00  0.00  0.00  0.00  0.00
  YS02001890YS02001895    1.00   0.00  0.04  0.00  0.95  0.00  0.00  0.00  0.00  0.00
  YS02001895YS02001898    1.00   0.05  0.00  0.00  0.95  0.00  0.01  0.00  0.00  0.00
  YS02001898YS02001901    1.00   0.05  0.00  0.00  0.95  0.00  0.00  0.00  0.02  0.00
  YS02001901YS02001904    1.00   0.05  0.00  0.00  0.95  0.00  0.00  0.00  0.00  0.00
  YS02001904YS02001907    1.00   0.00  0.04  0.00  0.95  0.00  0.00  0.00  0.00  0.00
  YS02001887YS02001890    1.00   0.00  0.00  0.00  0.98  0.00  0.02  0.00  0.00  0.00
  YS02001652YS02001649    1.00   0.00  0.00  0.00  1.00  0.00  0.00  0.00  0.18  0.00
  YS02001655YS02001652    1.00   0.00  0.00  0.00  0.94  0.00  0.00  0.06  0.02  0.00
  YS02001658YS02001655    1.00   0.00  0.04  0.00  0.93  0.02  0.00  0.00  0.11  0.00
  YS02001661YS02001658    1.00   0.04  0.00  0.00  0.89  0.07  0.00  0.00  0.06  0.00
  YS02001664YS02001661    1.00   0.04  0.00  0.00  0.84  0.12  0.00  0.00  0.22  0.00
  YSB1154YSB6556          1.00   0.04  0.00  0.00  0.96  0.00  0.00  0.00  0.02  0.00
  YSB1174YSB1171          1.00   0.03  0.01  0.00  0.97  0.00  0.00  0.00  0.00  0.00
  YSB1171HS02004479       1.00   0.03  0.00  0.00  0.97  0.00  0.00  0.00  0.11  0.00
  HS02004881HS02006253    1.00   0.03  0.00  0.00  0.88  0.01  0.00  0.08  0.72  0.00
  YS02001793JiankangQianchi    1.00   0.00  0.00  0.00  0.60  0.40  0.00  0.00  0.21  0.00
  YS02001757CaochengTiaoxuchi    1.00   0.00  0.07  0.00  0.91  0.03  0.00  0.00  0.00  0.00
  WSF200WS02003060        1.00   0.00  0.03  0.00  0.60  0.37  0.00  0.00  0.32  0.00
  1                       1.00   0.00  0.00  0.00  0.00  1.00  0.00  0.00  0.31  0.00
  2                       1.00   0.45  0.00  0.00  0.00  0.55  0.00  0.00  0.10  0.00
  3                       1.00   0.11  0.00  0.00  0.00  0.89  0.00  0.00  0.25  0.00
  4                       1.00   1.00  0.00  0.00  0.00  0.00  0.00  0.00  0.00  0.00
  
  
  *************************
  Conduit Surcharge Summary
  *************************
  
  ----------------------------------------------------------------------------
                                                           Hours        Hours 
                         --------- Hours Full --------   Above Full   Capacity
  Conduit                Both Ends  Upstream  Dnstream   Normal Flow   Limited
  ----------------------------------------------------------------------------
  WS02006229WS02006228        2.96      3.24      2.96      5.59         2.96
  WS02006256WS02006235        6.10      6.10      7.37      2.10         0.01
  WS02006253WS02006251        0.01      0.01      0.04      0.01         0.01
  WS02006252WS02006251        1.85      1.85      3.08      2.76         0.01
  WS02006251WS02006249        0.01      0.01      0.01      2.07         0.01
  WS02006249WS02006248        0.01      0.01      0.01      5.56         0.01
  WS02006248WS02006247        0.01      0.01      0.02      0.01         0.01
  WS02006247WS02006245        0.01      0.06      0.01      5.67         0.01
  WS02006245WS02006243        0.04      0.04      0.38      0.01         0.01
  WS02006243WS02006242        0.50      0.50      2.53      0.01         0.01
  WS02006242WS02006240        1.05      1.05      2.93      2.75         0.01
  WS02006240WS02006239        1.50      1.50      1.64      0.07         0.01
  WS02006239WS02006238        2.72      2.72      2.82      0.11         0.05
  WS02006238WS02006235        2.65      2.65      3.13      0.01         0.01
  WS02006235WS02006234        1.17      1.17      2.50      6.12         0.01
  WS02006234WS02006232        1.54      1.54      3.27      0.01         0.01
  WS02006232WS02006231        1.07      1.07      3.27      0.01         0.01
  WS02006231WS02006230        0.71      0.71      1.10      6.12         0.01
  WS02006230WS02006229        4.08      5.24      4.08      6.23         4.08
  WS02006228WS02006109        3.05      3.67      3.05      5.96         3.05
  WS02006112WS02006115        0.01      0.01      1.24      0.01         0.01
  WS02006111WS02006112        0.01      0.01      5.76      0.01         0.01
  WS02006110WS02006113        0.01      0.01      3.45      0.01         0.01
  WS02006109WS02006110        1.16      1.16      3.67      1.17         0.01
  WS02004406WS02004407        0.01      0.01      0.45      0.01         0.01
  WS02004405WS02004406        0.45      0.68      0.45      1.20         0.45
  WS02004404WS02004405        0.68      0.76      0.68      6.00         0.68
  WS02004403WS02004404        0.01      0.01      0.76      0.01         0.01
  WS02003072WS02003073        0.01      0.01      0.01      5.63         0.01
  HS02004480HS02004478        0.01      0.01      0.01      0.25         0.01
  YS02001759YS02001757        5.66      5.66      5.74      0.01         0.01
  YS02001762YS02001759        5.63      5.63      5.66      0.01         0.01
  YS02001765YS02001762        5.61      5.61      5.63      0.01         0.01
  YS02001770YS02001767        5.53      5.55      5.54      0.35         0.84
  YS02001774YS02001770        5.43      5.43      5.63      0.01         0.01
  YS02001779YS02001774        5.33      5.33      5.63      0.01         0.01
  YS02001649YS02001757        5.64      5.64      5.74      0.01         0.01
  YS02001767YS02001765        5.54      5.54      5.61      0.01         0.01
  YS02006561YS02001783        0.61      0.61      1.12      0.01         0.01
  YS02001783YS02001784        1.10      1.12      1.15      1.17         0.90
  YS02001784YS02001785        1.10      1.15      1.10      2.07         1.10
  YS02001788YS02001790        1.09      1.09      2.20      0.01         0.01
  YS02001790YS02001791        2.20      2.20      2.28      0.46         0.45
  YS02001791YS02001793        2.28      2.28      2.59      0.01         0.01
  YS02001910YS02001907        0.95      0.95      1.49      0.01         0.01
  YS02001786YS02001788        1.09      1.10      1.09      1.69         1.09
  YS02001915YS02001910        0.72      0.72      0.95      0.01         0.01
  YS02001918YS02001915        0.49      0.49      0.72      0.01         0.01
  YS02001923YS02001920        0.27      0.27      0.53      0.01         0.01
  YS02001920YS02001918        0.49      0.49      0.53      0.01         0.01
  YS02001629YS02163301        5.45      5.45      5.53      0.01         0.01
  YS02001619YS02001622        5.20      5.20      5.23      0.01         0.01
  YS02001622YS02001625        5.23      5.23      5.40      0.01         0.01
  YS02001625YS02001629        5.20      5.20      5.40      0.01         0.01
  YS02163301YS02001633        5.53      5.53      5.61      0.01         0.01
  YS02163601YS02164001        5.61      5.61      5.64      0.01         0.01
  YS02164001YS02001641        5.61      5.61      5.62      0.01         0.02
  YS02001641YS02001644        5.62      5.62      5.62      1.22         1.40
  YS02001647YS02001649        5.40      5.40      5.64      0.01         0.01
  YS02006553YS02006556        1.20      1.20      1.55      0.01         0.01
  YS02006556YS02006558        1.35      1.35      1.63      0.01         0.01
  YS02001907YS02006553        2.09      2.09      2.30      0.01         0.01
  YS02006558YS02006561        0.82      1.16      0.82      1.94         0.82
  YS02001633YS02163601        5.60      5.60      5.64      0.01         0.01
  YS02001644YS02001647        5.40      5.40      5.62      0.01         0.01
  YS02001745YS02001748        0.01      0.01      5.03      0.01         0.01
  YS02001748YS02001751        5.07      5.07      5.16      0.01         0.01
  YS02001751YS02001754        5.16      5.16      5.36      0.01         0.01
  YS02001754YS02001757        5.40      5.40      5.74      0.01         0.01
  YS02001882YS02001884        0.74      0.74      0.77      0.01         0.01
  YS02001884YS02001887        0.83      0.83      0.87      0.01         0.01
  YS02001890YS02001895        0.72      0.72      0.98      0.01         0.01
  YS02001895YS02001898        0.69      0.70      0.72      0.01         0.01
  YS02001898YS02001901        0.73      0.73      0.82      0.01         0.01
  YS02001901YS02001904        0.80      0.80      0.82      0.01         0.01
  YS02001904YS02001907        0.80      0.80      1.59      0.01         0.01
  YS02001887YS02001890        0.91      0.91      0.94      0.01         0.01
  YS02001652YS02001649        5.41      5.41      5.64      0.01         0.01
  YS02001655YS02001652        5.21      5.21      5.40      0.01         0.01
  YS02001658YS02001655        5.06      5.06      5.21      0.01         0.01
  YS02001661YS02001658        0.20      0.20      5.06      0.01         0.01
  YS02001664YS02001661        0.01      0.01      1.04      0.01         0.01
  YS02001793JiankangQianchi        2.53      2.53      3.22      0.01         0.01
  YS02001757CaochengTiaoxuchi        4.86      4.86      5.74      0.01         0.01
  
  
  ***************
  Pumping Summary
  ***************
  
  ---------------------------------------------------------------------------------------------------------
                                                  Min       Avg       Max     Total     Power    % Time Off
                        Percent   Number of      Flow      Flow      Flow    Volume     Usage    Pump Curve
  Pump                 Utilized   Start-Ups       LPS       LPS       LPS  10^6 ltr     Kw-hr    Low   High
  ---------------------------------------------------------------------------------------------------------
  CC-Pump-1               63.83           3      0.00    149.26    200.00     2.700      4.26    0.0   11.3
  CC-Pump-2               71.56           3      0.00    156.62    200.00     3.161      5.16    0.0   12.0
  JK-Pump-1               85.10           8      0.00    183.47    300.00     3.519     46.18    0.0    0.0
  JK-Pump-2               68.07           8      0.00    165.84    300.00     2.556     30.95    0.0    0.0
  XR-Pump-1               85.10           7      0.00     72.43     95.00     1.767     13.80    0.0    0.0
  XR-Pump-2               85.10           8      0.00     66.61     95.00     1.568     11.96    0.0    0.0
  XR-Pump-3               87.22          11      0.00     70.01     95.00     1.767     13.97    0.0    0.0
  XR-Pump-4               78.72           5      0.00     78.80     95.00     1.710     13.18    0.0    0.0
  

  Analysis begun on:  Wed Dec 22 18:38:03 2021
  Analysis ended on:  Wed Dec 22 18:38:08 2021
  Total elapsed time: 00:00:05