
  EPA STORM WATER MANAGEMENT MODEL - VERSION 5.1 (Build 5.3.0.dev0)
  --------------------------------------------------------------

  WARNING 04: minimum elevation drop used for Conduit WS02004404WS02004405
  WARNING 03: negative offset ignored for Link YS02001904YS02001907
  
  *********************************************************
  NOTE: The summary statistics displayed in this report are
  based on results found at every computational time step,  
  not just on results from each reporting time step.
  *********************************************************
  
  ****************
  Analysis Options
  ****************
  Flow Units ............... LPS
  Process Models:
    Rainfall/Runoff ........ YES
    RDII ................... NO
    Snowmelt ............... NO
    Groundwater ............ NO
    Flow Routing ........... YES
    Ponding Allowed ........ NO
    Water Quality .......... NO
  Infiltration Method ...... HORTON
  Flow Routing Method ...... DYNWAVE
  Surcharge Method ......... EXTRAN
  Starting Date ............ 08/28/2015 08:00:00
  Ending Date .............. 08/28/2015 15:50:00
  Antecedent Dry Days ...... 8.0
  Report Time Step ......... 00:01:00
  Wet Time Step ............ 00:01:00
  Dry Time Step ............ 00:01:00
  Routing Time Step ........ 5.00 sec
  Variable Time Step ....... YES
  Maximum Trials ........... 8
  Number of Threads ........ 4
  Head Tolerance ........... 0.001500 m
  
  
  **************************        Volume         Depth
  Runoff Quantity Continuity     hectare-m            mm
  **************************     ---------       -------
  Total Precipitation ......         5.556        12.164
  Evaporation Loss .........         0.000         0.000
  Infiltration Loss ........         1.427         3.124
  Surface Runoff ...........         3.072         6.726
  Final Storage ............         1.058         2.316
  Continuity Error (%) .....        -0.016
  
  
  **************************        Volume        Volume
  Flow Routing Continuity        hectare-m      10^6 ltr
  **************************     ---------     ---------
  Dry Weather Inflow .......         0.616         6.165
  Wet Weather Inflow .......         3.071        30.708
  Groundwater Inflow .......         0.000         0.000
  RDII Inflow ..............         0.000         0.000
  External Inflow ..........         0.102         1.024
  External Outflow .........         2.092        20.919
  Flooding Loss ............         1.212        12.115
  Evaporation Loss .........         0.000         0.000
  Exfiltration Loss ........         0.000         0.000
  Initial Stored Volume ....         0.076         0.761
  Final Stored Volume ......         0.645         6.448
  Continuity Error (%) .....        -2.136
  
  
  *************************
  Highest Continuity Errors
  *************************
  Node HS02004842 (16.24%)
  Node YS02001884 (11.41%)
  Node JK-storage (-9.15%)
  Node YS02001774 (3.60%)
  Node YSB1171 (3.12%)
  
  
  ***************************
  Time-Step Critical Elements
  ***************************
  Link 3 (58.19%)
  Link WS02006252WS02006251 (32.65%)
  Link WS02006238WS02006235 (2.56%)
  Link WS02006280WS02006229 (1.57%)
  
  
  ********************************
  Highest Flow Instability Indexes
  ********************************
  Link YS02163601YS02164001 (41)
  Link YS02001629YS02163301 (40)
  Link YS02163301YS02001633 (40)
  Link YS02001619YS02001622 (40)
  Link YS02164001YS02001641 (38)
  
  
  *************************
  Routing Time Step Summary
  *************************
  Minimum Time Step           :     0.31 sec
  Average Time Step           :     0.79 sec
  Maximum Time Step           :     5.00 sec
  Percent in Steady State     :    -0.00
  Average Iterations per Step :     4.67
  Percent Not Converging      :    22.29
  
  
  ***************************
  Subcatchment Runoff Summary
  ***************************
  
  ------------------------------------------------------------------------------------------------------------------------------
                            Total      Total      Total      Total     Imperv       Perv      Total       Total     Peak  Runoff
                           Precip      Runon       Evap      Infil     Runoff     Runoff     Runoff      Runoff   Runoff   Coeff
  Subcatchment                 mm         mm         mm         mm         mm         mm         mm    10^6 ltr      LPS
  ------------------------------------------------------------------------------------------------------------------------------
  sub0                      12.16       0.00       0.00       0.85      10.05       0.00      10.05        0.01     1.91   0.826
  sub1                      12.16       0.00       0.00       1.34       9.56       0.00       9.56        0.06    14.15   0.786
  sub2                      12.16       0.00       0.00       4.50       6.75       0.00       6.75        0.06    13.75   0.555
  sub3                      12.16       0.00       0.00       4.50       6.71       0.00       6.71        0.15    32.07   0.552
  sub4                      12.16       0.00       0.00       1.34       9.40       0.00       9.40        0.20    40.20   0.773
  sub5                      12.16       0.00       0.00       0.85       9.99       0.00       9.99        0.11    25.19   0.822
  sub7                      12.16       0.00       0.00       1.09       9.81       0.00       9.81        0.03     7.55   0.807
  sub8                      12.16       0.00       0.00       1.09       9.80       0.00       9.80        0.06    14.17   0.806
  sub9                      12.16       0.00       0.00       1.09       9.80       0.00       9.80        0.05    10.64   0.806
  sub10                     12.16       0.00       0.00       0.97       9.89       0.00       9.89        0.11    24.40   0.813
  sub11                     12.16       0.00       0.00       0.97       9.91       0.00       9.91        0.12    26.15   0.815
  sub12                     12.16       0.00       0.00       1.58       9.39       0.00       9.39        0.08    19.06   0.772
  sub14                     12.16       0.00       0.00       1.09       9.80       0.00       9.80        0.09    21.02   0.805
  sub15                     12.16       0.00       0.00       3.65       7.53       0.00       7.53        0.13    29.11   0.619
  sub16                     12.16       0.00       0.00       4.01       7.23       0.00       7.23        0.08    17.47   0.594
  sub17                     12.16       0.00       0.00       3.89       7.34       0.00       7.34        0.06    14.47   0.603
  sub22                     12.16       0.00       0.00       5.23       6.14       0.00       6.14        0.39    88.27   0.505
  sub23                     12.16       0.00       0.00       4.50       6.79       0.00       6.79        0.32    73.89   0.558
  sub60                     12.16       0.00       0.00       1.46       7.71       0.00       7.71        2.34   297.17   0.634
  sub61                     12.16       0.00       0.00       2.07       7.87       0.00       7.87        2.43   359.80   0.647
  sub62                     12.16       0.00       0.00       0.97       8.55       0.00       8.55        2.63   372.87   0.703
  sub63                     12.16       0.00       0.00       3.53       6.89       0.00       6.89        2.09   327.80   0.567
  sub64                     12.16       0.00       0.00       1.82       7.40       0.00       7.40        2.25   282.66   0.608
  sub65                     12.16       0.00       0.00       1.58       7.52       0.00       7.52        2.31   287.20   0.618
  sub66                     12.16       0.00       0.00       3.53       6.36       0.00       6.36        1.95   257.27   0.523
  sub67                     12.16       0.00       0.00       0.97       9.05       0.00       9.05        2.79   452.90   0.744
  sub68                     12.16       0.00       0.00       1.70       8.28       0.00       8.28        2.55   391.99   0.681
  sub69                     12.16       0.00       0.00       1.82       8.61       0.00       8.61        2.01   355.79   0.708
  sub70                     12.16       8.79       0.00       7.03      11.43       0.10      11.53        2.64   335.00   0.550
  sub71                     12.16       0.00       0.00       0.97       8.31       0.00       8.31        1.96   263.63   0.683
  sub72                     12.16       0.00       0.00       0.85       6.56       0.00       6.56        1.34   129.40   0.540
  sub73                     12.16      11.23       0.00       7.88      12.47       0.08      12.54        2.95   300.52   0.536
  sub74                     12.16       0.00       0.00       9.12       2.57       0.00       2.57        1.03   189.59   0.211
  
  
  ******************
  Node Depth Summary
  ******************
  
  ---------------------------------------------------------------------------------
                                 Average  Maximum  Maximum  Time of Max    Reported
                                   Depth    Depth      HGL   Occurrence   Max Depth
  Node                 Type       Meters   Meters   Meters  days hr:min      Meters
  ---------------------------------------------------------------------------------
  WS02001211           JUNCTION     0.65     0.80     5.64     0  03:10        0.80
  WS02001212           JUNCTION     0.38     0.52     5.58     0  03:11        0.52
  WS02001213           JUNCTION     0.62     0.78     5.54     0  03:11        0.78
  WS02003069           JUNCTION     0.45     0.61     5.20     0  03:11        0.61
  WS02003072           JUNCTION     0.52     0.67     5.04     0  03:12        0.67
  WS02003073           JUNCTION     0.31     0.41     4.48     0  03:13        0.41
  WS02003060           JUNCTION     0.40     0.54     5.47     0  03:11        0.54
  WS02003066           JUNCTION     0.25     0.33     5.88     0  03:05        0.33
  WS02003059           JUNCTION     0.68     0.83     5.52     0  03:11        0.83
  WS02003067           JUNCTION     0.60     0.74     6.06     0  03:05        0.74
  WS02004401           JUNCTION     0.72     0.97     6.97     0  03:02        0.97
  WS02004402           JUNCTION     0.75     0.99     6.95     0  03:02        0.99
  WS02004403           JUNCTION     0.76     0.99     6.92     0  03:02        0.99
  WS02004404           JUNCTION     0.84     1.06     6.91     0  03:02        1.06
  WS02004406           JUNCTION     0.84     1.03     6.86     0  03:02        1.03
  WS02004409           JUNCTION     0.53     0.75     6.52     0  03:04        0.75
  WS02004410           JUNCTION     0.55     0.76     6.48     0  03:05        0.76
  WS02004411           JUNCTION     0.56     0.76     6.44     0  03:05        0.76
  WS02004412           JUNCTION     0.57     0.76     6.40     0  03:05        0.76
  WS02004413           JUNCTION     0.73     0.91     6.38     0  03:05        0.91
  WS02004405           JUNCTION     0.83     1.04     6.89     0  03:02        1.04
  WS02006109           JUNCTION     0.80     1.10     7.72     0  02:58        1.08
  WS02006110           JUNCTION     0.79     1.02     7.61     0  02:57        1.00
  WS02006111           JUNCTION     0.24     0.36     7.06     0  03:00        0.35
  WS02006112           JUNCTION     0.89     1.20     7.08     0  03:04        1.18
  WS02006113           JUNCTION     0.37     0.51     7.40     0  03:03        0.51
  WS02006115           JUNCTION     0.61     0.89     7.02     0  03:02        0.89
  WS02006116           JUNCTION     0.69     0.96     7.00     0  03:03        0.96
  WS02006230           JUNCTION     0.79     1.17     7.91     0  03:02        1.16
  WS02006231           JUNCTION     0.53     0.82     7.95     0  03:02        0.82
  WS02006232           JUNCTION     0.67     0.95     7.98     0  03:02        0.94
  WS02006234           JUNCTION     0.59     0.86     8.01     0  03:02        0.85
  WS02006235           JUNCTION     0.63     0.88     8.05     0  03:03        0.87
  WS02006238           JUNCTION     0.65     0.90     8.05     0  03:03        0.90
  WS02006240           JUNCTION     0.55     0.80     8.10     0  02:50        0.80
  WS02006242           JUNCTION     0.61     0.86     8.13     0  02:50        0.86
  WS02006243           JUNCTION     0.49     0.75     8.17     0  02:50        0.75
  WS02006245           JUNCTION     0.46     0.71     8.20     0  02:50        0.71
  WS02006247           JUNCTION     0.48     0.72     8.22     0  02:50        0.72
  WS02006248           JUNCTION     0.42     0.65     8.23     0  02:50        0.65
  WS02006249           JUNCTION     0.45     0.65     8.25     0  02:50        0.65
  WS02006239           JUNCTION     0.61     0.86     8.07     0  02:50        0.86
  WS02006251           JUNCTION     0.44     0.70     8.37     0  02:50        0.70
  WS02006252           JUNCTION     0.39     0.59     8.83     0  03:43        0.59
  WS02006253           JUNCTION     0.47     0.73     8.37     0  02:50        0.73
  WS02006256           JUNCTION     1.08     2.35     9.28     0  00:00        1.21
  WS02004138           JUNCTION     0.15     0.19     7.44     0  03:52        0.19
  WS02004407           JUNCTION     0.24     0.33     6.64     0  03:04        0.33
  WS02006228           JUNCTION     0.81     1.17     7.82     0  03:02        1.16
  WS02006229           JUNCTION     0.79     1.18     7.87     0  03:02        1.18
  WS02006280           JUNCTION     0.07     0.19     8.46     0  03:02        0.19
  WS02006284           JUNCTION     0.38     0.55     8.95     0  03:02        0.55
  WS02006287           JUNCTION     0.11     0.28     9.24     0  03:01        0.28
  WSF200               JUNCTION     0.24     0.35     5.59     0  03:03        0.35
  HS02004901           JUNCTION     0.13     0.28    10.10     0  03:01        0.28
  HS02004881           JUNCTION     0.01     0.04     9.07     0  03:01        0.04
  HS02004876           JUNCTION     0.05     0.12     9.15     0  03:01        0.12
  HS02004870           JUNCTION     0.02     0.06     9.35     0  03:01        0.06
  HS02004862           JUNCTION     0.02     0.07     9.46     0  03:01        0.07
  HS02004856           JUNCTION     0.08     0.13     9.55     0  03:01        0.13
  HS02004852           JUNCTION     0.01     0.05     9.56     0  03:01        0.05
  HS02004848           JUNCTION     0.01     0.05     9.65     0  03:01        0.05
  HS02004842           JUNCTION     0.33     0.38     9.65     0  03:01        0.38
  HS02004837           JUNCTION     0.03     0.07     9.65     0  03:01        0.07
  HS02004830           JUNCTION     0.04     0.08     9.55     0  03:01        0.08
  HS02004824           JUNCTION     0.03     0.06     9.46     0  03:01        0.06
  HS02004817           JUNCTION     0.45     0.60     9.44     0  03:01        0.60
  HS02004807           JUNCTION     0.13     0.27     9.44     0  03:01        0.27
  HS02004802           JUNCTION     0.17     0.30     9.43     0  03:01        0.30
  HS02004799           JUNCTION     0.13     0.33     9.54     0  03:01        0.33
  HS02004792           JUNCTION     0.04     0.14     9.66     0  03:01        0.14
  HS02004788           JUNCTION     0.03     0.10    10.00     0  03:01        0.10
  HS02004785           JUNCTION     0.05     0.17    10.07     0  03:01        0.17
  HS02004777           JUNCTION     0.15     0.30    10.10     0  03:01        0.30
  HS02004770           JUNCTION     0.12     0.27    10.10     0  03:01        0.27
  HS02004480           JUNCTION     0.09     0.26     9.50     0  03:01        0.26
  HS02004479           JUNCTION     0.13     0.30     9.50     0  03:01        0.30
  HS02004478           JUNCTION     0.07     0.18     9.41     0  03:01        0.18
  YS02001745           JUNCTION     0.70     0.87     8.39     0  03:26        0.87
  YS02001748           JUNCTION     1.10     2.27     9.35     0  02:40        1.32
  YS02001751           JUNCTION     1.28     2.20     9.08     0  02:42        1.53
  YS02001754           JUNCTION     1.54     2.14     8.75     0  02:42        1.81
  YS02001762           JUNCTION     1.74     2.08     8.48     0  02:42        2.02
  YS02001765           JUNCTION     1.69     2.02     8.47     0  02:42        1.96
  YS02001767           JUNCTION     1.65     1.96     8.44     0  02:42        1.92
  YS02001770           JUNCTION     1.65     1.95     8.44     0  02:42        1.90
  YS02001774           JUNCTION     1.72     2.01     8.44     0  02:42        1.96
  YS02001779           JUNCTION     1.47     1.68     8.37     0  02:38        1.68
  YS02001882           JUNCTION     0.56     1.61     8.32     0  03:00        1.60
  YS02001884           JUNCTION     0.65     1.71     8.33     0  03:00        1.70
  YS02001759           JUNCTION     1.77     2.10     8.47     0  02:42        2.06
  YS02001887           JUNCTION     0.73     1.79     8.33     0  03:00        1.78
  YS02001890           JUNCTION     0.76     1.81     8.31     0  03:00        1.80
  YS02001898           JUNCTION     0.53     1.55     8.29     0  03:00        1.54
  YS02001901           JUNCTION     0.65     1.67     8.28     0  03:00        1.67
  YS02001904           JUNCTION     0.62     1.63     8.26     0  03:03        1.63
  YS02001907           JUNCTION     0.95     1.96     8.25     0  02:52        1.96
  YS02001910           JUNCTION     0.74     1.78     8.29     0  02:53        1.77
  YS02001915           JUNCTION     0.54     1.59     8.31     0  02:53        1.57
  YS02001918           JUNCTION     0.29     1.26     8.33     0  02:53        1.24
  YS02001619           JUNCTION     1.25     1.61     8.54     0  02:36        1.50
  YS02001629           JUNCTION     1.61     1.85     8.40     0  02:39        1.85
  YS02001641           JUNCTION     1.71     1.97     8.40     0  02:40        1.93
  YS02001644           JUNCTION     1.71     1.92     8.35     0  02:38        1.92
  YS02001652           JUNCTION     1.55     2.16     8.76     0  02:36        1.98
  YS02001655           JUNCTION     1.31     2.20     9.05     0  02:34        1.77
  YS02001920           JUNCTION     0.38     1.34     8.35     0  02:53        1.32
  YS02001923           JUNCTION     0.22     1.09     8.35     0  02:53        1.07
  YS02001926           JUNCTION     0.27     0.90     8.34     0  02:53        0.88
  YS02001929           JUNCTION     0.15     0.68     8.37     0  02:53        0.63
  YS02001658           JUNCTION     1.04     2.30     9.44     0  02:36        1.55
  YS02001661           JUNCTION     0.81     2.46     9.86     0  02:56        1.26
  YS02001664           JUNCTION     0.35     0.57     8.49     0  02:54        0.56
  YS02001622           JUNCTION     1.27     1.62     8.52     0  02:37        1.51
  YS02001633           JUNCTION     1.70     1.98     8.44     0  02:40        1.94
  YS02001649           JUNCTION     1.75     2.05     8.44     0  02:38        2.05
  YS02001757           JUNCTION     1.87     2.21     8.47     0  02:42        2.16
  YS02001895           JUNCTION     0.52     1.56     8.30     0  02:58        1.54
  YS02001625           JUNCTION     1.56     1.78     8.38     0  02:37        1.78
  YS02163301           JUNCTION     1.64     1.90     8.42     0  02:40        1.88
  YS02163601           JUNCTION     1.75     2.04     8.44     0  02:40        1.98
  YS02164001           JUNCTION     1.69     1.97     8.43     0  02:40        1.91
  YS02001647           JUNCTION     1.54     1.80     8.41     0  02:58        1.80
  YSB1154              JUNCTION     0.27     0.45     9.51     0  03:01        0.45
  YSB6556              JUNCTION     0.16     0.34     9.51     0  03:01        0.34
  YSB1174              JUNCTION     0.22     0.40     9.51     0  03:01        0.40
  YSB1171              JUNCTION     0.42     0.60     9.51     0  03:01        0.60
  YS02006553           JUNCTION     0.96     1.96     8.25     0  02:58        1.96
  YS02006561           JUNCTION     0.33     1.08     7.74     0  02:57        1.07
  YS02006556           JUNCTION     0.92     1.92     8.23     0  03:00        1.91
  YS02006558           JUNCTION     0.96     1.96     8.23     0  02:59        1.95
  YS02001783           JUNCTION     0.56     1.65     7.79     0  02:32        1.46
  YS02001784           JUNCTION     0.58     1.44     7.51     0  02:32        1.41
  YS02001786           JUNCTION     0.52     1.81     7.84     0  02:32        1.25
  YS02001788           JUNCTION     0.46     1.55     7.52     0  02:32        1.13
  YS02001790           JUNCTION     0.59     1.96     7.60     0  02:30        1.29
  YS02001791           JUNCTION     0.58     1.60     7.07     0  05:35        1.27
  YS02001793           JUNCTION     0.85     2.55     7.38     0  02:27        1.80
  WS02004139           JUNCTION     0.59     0.74     5.65     0  03:10        0.74
  WSC                  OUTFALL      0.31     0.41     1.08     0  03:13        0.41
  3                    OUTFALL      0.12     0.23     6.23     0  00:00        0.21
  4                    OUTFALL      0.04     0.15     7.15     0  02:50        0.15
  5                    OUTFALL      0.00     0.00     5.00     0  00:00        0.00
  JK-storage           STORAGE      3.33     5.80     6.60     0  02:31        5.80
  CC-storage           STORAGE      1.09     1.37     8.37     0  03:30        1.37
  XR-storage           STORAGE      7.22     7.72     5.72     0  02:34        7.72
  
  
  *******************
  Node Inflow Summary
  *******************
  
  -------------------------------------------------------------------------------------------------
                                  Maximum  Maximum                  Lateral       Total        Flow
                                  Lateral    Total  Time of Max      Inflow      Inflow     Balance
                                   Inflow   Inflow   Occurrence      Volume      Volume       Error
  Node                 Type           LPS      LPS  days hr:min    10^6 ltr    10^6 ltr     Percent
  -------------------------------------------------------------------------------------------------
  WS02001211           JUNCTION      7.35   387.54     0  04:00       0.207        6.62       0.467
  WS02001212           JUNCTION      0.00   387.45     0  04:00           0        6.59       0.228
  WS02001213           JUNCTION      0.00   387.45     0  04:00           0        6.58       0.338
  WS02003069           JUNCTION      0.32  1025.00     0  03:11     0.00902        15.5       0.187
  WS02003072           JUNCTION      0.00  1025.03     0  03:12           0        15.4       0.229
  WS02003073           JUNCTION      1.82  1026.93     0  03:12      0.0514        15.4       0.254
  WS02003060           JUNCTION     16.53  1024.56     0  03:11       0.466        15.5       0.180
  WS02003066           JUNCTION      0.00   661.81     0  03:05           0         8.5       0.059
  WS02003059           JUNCTION      0.00   387.64     0  04:01           0        6.56       0.550
  WS02003067           JUNCTION      0.00   661.71     0  03:05           0        8.51       0.120
  WS02004401           JUNCTION      0.00   663.50     0  03:03           0        8.76       0.276
  WS02004402           JUNCTION      0.00   663.43     0  03:03           0        8.74       0.257
  WS02004403           JUNCTION      0.00   662.79     0  03:04           0        8.72       0.231
  WS02004404           JUNCTION      0.16   662.45     0  03:04     0.00457         8.7       0.170
  WS02004406           JUNCTION      0.00   662.54     0  03:04           0        8.67       0.414
  WS02004409           JUNCTION      0.00   662.45     0  03:04           0        8.62       0.222
  WS02004410           JUNCTION      0.00   662.11     0  03:04           0         8.6       0.247
  WS02004411           JUNCTION      0.00   661.89     0  03:05           0        8.58       0.249
  WS02004412           JUNCTION      0.00   661.88     0  03:05           0        8.56       0.265
  WS02004413           JUNCTION      0.00   661.72     0  03:05           0        8.54       0.386
  WS02004405           JUNCTION      0.04   662.48     0  03:04     0.00107        8.69       0.256
  WS02006109           JUNCTION      1.23   655.19     0  03:03      0.0347        8.84       0.259
  WS02006110           JUNCTION      0.00   655.12     0  03:03           0        8.82       0.248
  WS02006111           JUNCTION      0.00   687.33     0  03:03           0        8.78       0.060
  WS02006112           JUNCTION     14.47   668.75     0  03:01      0.0629        8.84       0.346
  WS02006113           JUNCTION      0.00   656.76     0  03:02           0         8.8       0.134
  WS02006115           JUNCTION      0.00   668.79     0  03:01           0        8.81       0.273
  WS02006116           JUNCTION      0.00   665.53     0  03:01           0        8.79       0.259
  WS02006230           JUNCTION     10.28   397.83     0  03:50        0.29        6.96       0.221
  WS02006231           JUNCTION      0.00   388.15     0  06:22           0        6.69       0.221
  WS02006232           JUNCTION      0.00   388.25     0  06:22           0         6.7       0.264
  WS02006234           JUNCTION      0.00   389.51     0  06:22           0        6.72       0.156
  WS02006235           JUNCTION      0.00   389.88     0  06:21           0        6.75       0.183
  WS02006238           JUNCTION      0.00   345.04     0  06:30           0         4.7       0.195
  WS02006240           JUNCTION      0.00   339.23     0  06:30           0        4.71       0.341
  WS02006242           JUNCTION      0.00   336.69     0  06:30           0        4.72       0.395
  WS02006243           JUNCTION      0.00   331.71     0  06:31           0        4.72       0.130
  WS02006245           JUNCTION      0.00   330.57     0  06:31           0        4.73       0.282
  WS02006247           JUNCTION      0.00   332.23     0  07:40           0        4.74       0.225
  WS02006248           JUNCTION      0.00   336.53     0  07:40           0        4.75       0.142
  WS02006249           JUNCTION      0.00   466.06     0  02:50           0         5.5       0.296
  WS02006239           JUNCTION      0.00   344.29     0  06:30           0         4.7       0.318
  WS02006251           JUNCTION      0.08   466.86     0  02:50     0.00217        5.53       0.256
  WS02006252           JUNCTION      0.00   400.00     0  03:40           0        5.15       0.010
  WS02006253           JUNCTION      1.91    81.00     0  03:01     0.00813       0.385       2.171
  WS02006256           JUNCTION      0.00   600.00     0  00:00           0        6.87       0.035
  WS02004138           JUNCTION      0.00   380.00     0  03:50           0        6.44       0.057
  WS02004407           JUNCTION      0.00   662.69     0  03:02           0        8.63       0.102
  WS02006228           JUNCTION      0.00   654.00     0  03:02           0        8.82       0.190
  WS02006229           JUNCTION      0.00   652.81     0  03:02           0        8.84       0.141
  WS02006280           JUNCTION      0.00   375.54     0  03:02           0        1.89       0.004
  WS02006284           JUNCTION      0.10   375.54     0  03:02      0.0027        1.89       0.064
  WS02006287           JUNCTION      0.00   375.27     0  03:01           0        1.89       0.037
  WSF200               JUNCTION      0.00   661.86     0  03:06           0        8.49       0.060
  HS02004901           JUNCTION     17.47    17.47     0  03:01      0.0757      0.0759       2.380
  HS02004881           JUNCTION      7.55    79.19     0  03:01      0.0331       0.357       0.094
  HS02004876           JUNCTION     14.15    72.10     0  03:01      0.0636       0.324       0.171
  HS02004870           JUNCTION     14.17    58.27     0  03:01      0.0626       0.261       0.043
  HS02004862           JUNCTION     13.95    44.46     0  03:01      0.0685       0.198       0.089
  HS02004856           JUNCTION     10.64    30.79     0  03:01      0.0471       0.131       1.117
  HS02004852           JUNCTION      0.00    20.44     0  03:01           0       0.084       0.069
  HS02004848           JUNCTION     32.07    32.07     0  03:01       0.151       0.151       0.033
  HS02004842           JUNCTION      0.00    11.42     0  03:01           0      0.0801      19.389
  HS02004837           JUNCTION     30.75    41.91     0  03:01       0.288       0.355       0.230
  HS02004830           JUNCTION      0.15    41.84     0  03:01     0.00423       0.346       0.358
  HS02004824           JUNCTION     40.25    81.79     0  03:01       0.197       0.542       0.100
  HS02004817           JUNCTION      0.60    82.18     0  03:01      0.0169       0.558       3.079
  HS02004807           JUNCTION     26.15   107.24     0  03:01       0.115       0.657       0.656
  HS02004802           JUNCTION      0.00   106.49     0  03:01           0       0.653       0.618
  HS02004799           JUNCTION     21.02   227.51     0  03:01      0.0932        1.06       0.236
  HS02004792           JUNCTION     88.55   207.33     0  03:01       0.396       0.966       0.043
  HS02004788           JUNCTION     30.78   119.37     0  03:01       0.177       0.571       0.068
  HS02004785           JUNCTION      0.15    89.79     0  03:01     0.00423       0.396       0.125
  HS02004777           JUNCTION      0.03    90.24     0  03:01    0.000846       0.397       1.326
  HS02004770           JUNCTION     73.89    90.93     0  03:01       0.324       0.398       0.787
  HS02004480           JUNCTION      0.00   269.27     0  03:01           0        1.25       0.099
  HS02004479           JUNCTION      0.00    42.82     0  03:02           0       0.204       0.360
  HS02004478           JUNCTION      0.00   375.17     0  03:01           0        1.89       0.018
  YS02001745           JUNCTION    297.18   417.92     0  02:40        2.34        2.35       0.447
  YS02001748           JUNCTION      0.04   604.94     0  02:40     0.00127        2.34       0.972
  YS02001751           JUNCTION      0.01   320.07     0  02:32     0.00031        2.31       1.022
  YS02001754           JUNCTION      0.26   307.97     0  03:01     0.00733        2.29       1.097
  YS02001762           JUNCTION      0.00   336.19     0  02:54           0        1.93       1.099
  YS02001765           JUNCTION      0.00   335.80     0  02:54           0        1.93       1.266
  YS02001767           JUNCTION      0.54   335.54     0  02:54      0.0151        1.96       1.847
  YS02001770           JUNCTION    373.02   373.02     0  03:01        2.63        2.65       1.191
  YS02001774           JUNCTION      0.00   260.78     0  03:31           0       0.698       3.738
  YS02001779           JUNCTION      0.01   261.13     0  03:31    0.000141       0.667       2.389
  YS02001882           JUNCTION      0.00    16.83     0  02:45           0      0.0178      13.977
  YS02001884           JUNCTION      0.00    27.72     0  02:34           0      0.0535      12.883
  YS02001759           JUNCTION    359.84   659.70     0  02:55        2.43        4.31       0.534
  YS02001887           JUNCTION    453.35   453.54     0  03:01         2.8        2.83       0.300
  YS02001890           JUNCTION      0.00   453.48     0  03:01           0        2.79       0.329
  YS02001898           JUNCTION      0.00   453.52     0  03:01           0        2.77       0.122
  YS02001901           JUNCTION      0.00   453.70     0  03:01           0        2.77       0.245
  YS02001904           JUNCTION      0.00   453.76     0  03:01           0        2.77       0.225
  YS02001907           JUNCTION      0.00   861.97     0  02:58           0        6.12       0.392
  YS02001910           JUNCTION      0.00   430.98     0  02:54           0        3.37       0.351
  YS02001915           JUNCTION    263.65   430.95     0  02:54        1.96        3.39       0.176
  YS02001918           JUNCTION      0.00   195.57     0  02:54           0        1.43       0.131
  YS02001619           JUNCTION    257.27   257.27     0  03:01        1.95        1.95       0.625
  YS02001629           JUNCTION      0.00   207.00     0  02:49           0        1.63       1.783
  YS02001641           JUNCTION      0.00   437.09     0  02:49           0        3.84       0.549
  YS02001644           JUNCTION    282.70   972.13     0  03:28        2.25        7.77       0.336
  YS02001652           JUNCTION      0.00   372.29     0  03:01           0        2.04       1.149
  YS02001655           JUNCTION      0.15   372.43     0  03:01     0.00434        2.06       1.215
  YS02001920           JUNCTION      2.87   195.50     0  02:54      0.0809        1.42       0.204
  YS02001923           JUNCTION      0.04   209.62     0  02:54     0.00106        1.34       0.051
  YS02001926           JUNCTION      0.05   178.16     0  02:54     0.00147        1.34       0.247
  YS02001929           JUNCTION    129.40   129.40     0  03:01        1.34        1.34       0.040
  YS02001658           JUNCTION      0.00   644.39     0  02:37           0         2.1       1.073
  YS02001661           JUNCTION      0.00   692.22     0  02:54           0        2.83      -0.049
  YS02001664           JUNCTION    327.80   360.28     0  02:52        2.09        2.82       0.210
  YS02001622           JUNCTION      0.00   257.54     0  03:01           0        1.94       1.664
  YS02001633           JUNCTION    287.40   436.26     0  02:49        2.32         3.9       0.829
  YS02001649           JUNCTION      0.00   928.62     0  02:49           0        4.87       0.763
  YS02001757           JUNCTION      0.00  1762.79     0  02:51           0        9.63       0.968
  YS02001895           JUNCTION      0.00   453.63     0  03:01           0        2.78       0.176
  YS02001625           JUNCTION      0.00   257.41     0  03:01           0         1.9       2.079
  YS02163301           JUNCTION      0.00   207.38     0  02:49           0        1.61       1.512
  YS02163601           JUNCTION      0.11   436.54     0  02:49      0.0031        3.87       0.782
  YS02164001           JUNCTION      0.00   436.80     0  02:49           0        3.84       0.524
  YS02001647           JUNCTION      0.00   662.11     0  02:49           0        3.82       0.749
  YSB1154              JUNCTION     25.19    25.19     0  03:01       0.113       0.114       1.285
  YSB6556              JUNCTION      0.00    24.91     0  03:01           0       0.115       1.100
  YSB1174              JUNCTION     19.06    19.06     0  03:01      0.0821      0.0827       1.581
  YSB1171              JUNCTION      0.00    43.19     0  03:01           0       0.203       3.220
  YS02006553           JUNCTION      0.00   666.56     0  03:16           0         5.9       0.263
  YS02006561           JUNCTION      0.00   964.26     0  03:00           0        8.41       0.009
  YS02006556           JUNCTION      0.00   666.42     0  03:16           0         5.9       0.191
  YS02006558           JUNCTION    392.87   964.57     0  03:00        2.57        8.44       0.062
  YS02001783           JUNCTION      0.00   964.38     0  03:00           0        8.41       0.028
  YS02001784           JUNCTION      1.06   965.37     0  03:00      0.0299        8.44       0.045
  YS02001786           JUNCTION      0.06   965.43     0  03:00     0.00159        8.44       0.041
  YS02001788           JUNCTION      0.07   965.43     0  03:00       0.002        8.44       0.026
  YS02001790           JUNCTION      0.15   965.60     0  03:00     0.00437        8.44       0.029
  YS02001791           JUNCTION      0.00   965.63     0  03:00           0        8.44       0.010
  YS02001793           JUNCTION      0.00   965.72     0  03:00           0        8.46       0.004
  WS02004139           JUNCTION      0.32   380.32     0  03:52     0.00905        6.45       0.498
  WSC                  OUTFALL       0.00  1026.94     0  03:13           0        15.4       0.000
  3                    OUTFALL       0.00   597.65     0  00:00           0        4.79       0.000
  4                    OUTFALL       0.00   214.68     0  02:50           0       0.733       0.000
  5                    OUTFALL       0.00     0.00     0  00:00           0           0       0.000 ltr
  JK-storage           STORAGE       0.00  1019.99     0  02:27           0        8.61      -8.387
  CC-storage           STORAGE       0.00  1762.93     0  02:51           0        8.76       0.572
  XR-storage           STORAGE     690.11   690.11     0  03:01        9.61        10.2      -0.001
  
  
  **********************
  Node Surcharge Summary
  **********************
  
  Surcharging occurs when water rises above the top of the highest conduit.
  ---------------------------------------------------------------------
                                               Max. Height   Min. Depth
                                   Hours       Above Crown    Below Rim
  Node                 Type      Surcharged         Meters       Meters
  ---------------------------------------------------------------------
  WS02004404           JUNCTION        0.66          0.057        2.723
  WS02004406           JUNCTION        0.41          0.029        2.421
  WS02004405           JUNCTION        0.54          0.044        2.756
  WS02006109           JUNCTION        2.97          0.281        1.539
  WS02006110           JUNCTION        0.91          0.111        1.739
  WS02006112           JUNCTION        1.09          0.199        1.481
  WS02006230           JUNCTION        0.60          0.087        1.483
  WS02006231           JUNCTION        0.76          0.113        1.417
  WS02006232           JUNCTION        2.87          0.246        1.234
  WS02006234           JUNCTION        0.91          0.135        1.105
  WS02006235           JUNCTION        2.11          0.171        1.119
  WS02006238           JUNCTION        2.42          0.184        1.246
  WS02006240           JUNCTION        0.90          0.094        1.296
  WS02006242           JUNCTION        2.08          0.132        0.688
  WS02006243           JUNCTION        0.40          0.037        0.733
  WS02006245           JUNCTION        0.01          0.004        0.846
  WS02006247           JUNCTION        0.04          0.008        0.752
  WS02006239           JUNCTION        1.25          0.121        1.169
  WS02006252           JUNCTION        2.40          0.193        0.907
  WS02006256           JUNCTION        0.01          1.050        0.000
  WS02006228           JUNCTION        2.89          0.339        1.861
  YS02001748           JUNCTION        5.07          1.190        0.000
  YS02001751           JUNCTION        5.23          1.198        0.002
  YS02001754           JUNCTION        5.42          1.095        0.055
  YS02001762           JUNCTION        5.64          1.075        0.075
  YS02001765           JUNCTION        5.61          1.018        0.082
  YS02001767           JUNCTION        5.59          0.956        0.074
  YS02001770           JUNCTION        5.57          0.920        0.000
  YS02001774           JUNCTION        5.63          1.014        0.036
  YS02001779           JUNCTION        5.41          0.680        0.000
  YS02001882           JUNCTION        0.81          0.608        0.222
  YS02001884           JUNCTION        0.84          0.651        0.219
  YS02001759           JUNCTION        5.66          1.102        0.108
  YS02001887           JUNCTION        0.93          0.739        0.211
  YS02001890           JUNCTION        0.97          0.757        0.003
  YS02001898           JUNCTION        0.76          0.525        0.215
  YS02001901           JUNCTION        0.90          0.671        0.199
  YS02001904           JUNCTION        0.87          0.634        0.216
  YS02001907           JUNCTION        1.49          0.950        0.000
  YS02001910           JUNCTION        1.02          0.779        0.321
  YS02001915           JUNCTION        0.79          0.589        0.411
  YS02001918           JUNCTION        0.54          0.263        0.547
  YS02001619           JUNCTION        5.23          0.610        0.000
  YS02001629           JUNCTION        5.25          0.470        0.000
  YS02001641           JUNCTION        5.62          0.966        0.134
  YS02001644           JUNCTION        5.62          0.920        0.000
  YS02001652           JUNCTION        5.46          1.130        0.000
  YS02001655           JUNCTION        5.25          1.200        0.000
  YS02001920           JUNCTION        0.57          0.339        0.801
  YS02001658           JUNCTION        5.10          1.300        0.000
  YS02001661           JUNCTION        0.22          1.390        0.000
  YS02001622           JUNCTION        5.27          0.620        0.000
  YS02001633           JUNCTION        5.60          0.964        0.096
  YS02001649           JUNCTION        5.64          1.050        0.000
  YS02001757           JUNCTION        5.74          1.210        0.000
  YS02001895           JUNCTION        0.78          0.556        0.194
  YS02001625           JUNCTION        5.54          0.780        0.000
  YS02163301           JUNCTION        5.58          0.904        0.126
  YS02163601           JUNCTION        5.64          1.042        0.038
  YS02164001           JUNCTION        5.61          0.972        0.128
  YS02001647           JUNCTION        5.52          0.804        0.096
  YS02006553           JUNCTION        1.56          0.964        0.226
  YS02006561           JUNCTION        0.67          0.280        0.870
  YS02006556           JUNCTION        1.24          0.878        0.472
  YS02006558           JUNCTION        1.21          0.860        0.540
  YS02001783           JUNCTION        1.38          0.853        0.747
  YS02001784           JUNCTION        1.44          0.643        0.847
  YS02001786           JUNCTION        1.39          1.013        0.417
  YS02001788           JUNCTION        1.36          0.746        0.734
  YS02001790           JUNCTION        2.11          1.157        0.000
  YS02001791           JUNCTION        2.22          0.798        1.122
  YS02001793           JUNCTION        2.63          1.551        1.049
  
  
  *********************
  Node Flooding Summary
  *********************
  
  Flooding refers to all water that overflows a node, whether it ponds or not.
  --------------------------------------------------------------------------
                                                             Total   Maximum
                                 Maximum   Time of Max       Flood    Ponded
                        Hours       Rate    Occurrence      Volume     Depth
  Node                 Flooded       LPS   days hr:min    10^6 ltr    Meters
  --------------------------------------------------------------------------
  WS02006256              0.01    406.11      0  00:00       0.001     0.000
  YS02001748              0.01    212.30      0  02:42       0.001     0.000
  YS02001770              0.01      6.73      0  02:42       0.000     0.000
  YS02001779              2.36    260.89      0  03:31       0.646     0.000
  YS02001907              0.39    275.80      0  02:58       0.213     0.000
  YS02001619              0.01     20.95      0  02:38       0.000     0.000
  YS02001629              0.01     27.56      0  02:39       0.000     0.000
  YS02001644              3.83    972.01      0  03:28       5.623     0.000
  YS02001652              0.01     23.21      0  03:06       0.000     0.000
  YS02001655              0.01    145.15      0  02:35       0.001     0.000
  YS02001658              0.01    334.02      0  02:37       0.001     0.000
  YS02001661              0.01    181.88      0  03:06       0.002     0.000
  YS02001622              0.01     31.81      0  02:39       0.000     0.000
  YS02001649              0.09     52.11      0  03:10       0.006     0.000
  YS02001757              0.01     13.85      0  02:42       0.000     0.000
  YS02001625              0.85    168.91      0  03:01       0.237     0.000
  YS02001790              0.01     98.95      0  02:30       0.000     0.000
  JK-storage              1.91    665.19      0  02:59       2.510     0.000
  XR-storage              4.36    499.48      0  02:50       2.876     0.000
  
  
  **********************
  Storage Volume Summary
  **********************
  
  --------------------------------------------------------------------------------------------------
                         Average     Avg  Evap Exfil       Maximum     Max    Time of Max    Maximum
                          Volume    Pcnt  Pcnt  Pcnt        Volume    Pcnt     Occurrence    Outflow
  Storage Unit           1000 m3    Full  Loss  Loss       1000 m3    Full    days hr:min        LPS
  --------------------------------------------------------------------------------------------------
  JK-storage               0.167      57     0     0         0.291     100       0  02:31     600.00
  CC-storage               3.041      19     0     0         3.825      24       0  03:30     400.00
  XR-storage               0.867      94     0     0         0.926     100       0  02:34     380.00
  
  
  ***********************
  Outfall Loading Summary
  ***********************
  
  -----------------------------------------------------------
                         Flow       Avg       Max       Total
                         Freq      Flow      Flow      Volume
  Outfall Node           Pcnt       LPS       LPS    10^6 ltr
  -----------------------------------------------------------
  WSC                   99.99    622.79   1026.94      15.399
  3                     91.52    245.06    597.65       4.787
  4                     44.27     76.56    214.68       0.733
  5                      0.00      0.00      0.00       0.000
  -----------------------------------------------------------
  System                58.95    944.41   1727.49      20.919
  
  
  ********************
  Link Flow Summary
  ********************
  
  -----------------------------------------------------------------------------
                                 Maximum  Time of Max   Maximum    Max/    Max/
                                  |Flow|   Occurrence   |Veloc|    Full    Full
  Link                 Type          LPS  days hr:min     m/sec    Flow   Depth
  -----------------------------------------------------------------------------
  WS02003066WSF200     CONDUIT    661.86     0  03:06      2.91    0.11    0.26
  WS02006287WS02006284 CONDUIT    375.44     0  03:02      1.98    0.17    0.29
  WS02006284WS02006280 CONDUIT    375.54     0  03:02      2.22    0.16    0.27
  WS02006280WS02006229 CONDUIT    375.58     0  03:02      3.58    0.08    0.19
  WS02006229WS02006228 CONDUIT    654.00     0  03:02      1.30    2.17    1.00
  WS02006256WS02006235 CONDUIT    177.52     0  00:01      2.73    1.88    1.00
  WS02006253WS02006251 CONDUIT     84.23     0  03:00      0.46    0.25    0.99
  WS02006252WS02006251 CONDUIT    400.48     0  06:29      3.19    1.47    1.00
  WS02006251WS02006249 CONDUIT    466.06     0  02:50      1.22    1.34    0.97
  WS02006249WS02006248 CONDUIT    336.53     0  07:40      1.10    1.84    0.91
  WS02006248WS02006247 CONDUIT    332.23     0  07:40      1.05    0.72    0.96
  WS02006247WS02006245 CONDUIT    330.57     0  06:31      1.00    2.62    1.00
  WS02006245WS02006243 CONDUIT    331.71     0  06:31      1.07    0.98    1.00
  WS02006243WS02006242 CONDUIT    336.69     0  06:30      0.91    0.72    1.00
  WS02006242WS02006240 CONDUIT    339.23     0  06:30      0.90    1.35    1.00
  WS02006240WS02006239 CONDUIT    344.29     0  06:30      0.94    1.08    1.00
  WS02006239WS02006238 CONDUIT    345.04     0  06:30      0.91    1.10    1.00
  WS02006238WS02006235 CONDUIT    345.00     0  06:30      1.32    0.77    1.00
  WS02006235WS02006234 CONDUIT    389.51     0  06:22      1.02    4.11    1.00
  WS02006234WS02006232 CONDUIT    388.25     0  06:22      1.17    0.79    1.00
  WS02006232WS02006231 CONDUIT    388.15     0  06:22      1.06    0.81    1.00
  WS02006231WS02006230 CONDUIT    387.56     0  03:50      1.33    5.88    1.00
  WS02006230WS02006229 CONDUIT    398.08     0  03:50      1.03    8.86    1.00
  WS02006228WS02006109 CONDUIT    653.96     0  03:03      1.30    2.86    1.00
  WS02006116WS02004401 CONDUIT    663.50     0  03:03      0.85    0.91    0.97
  WS02006115WS02006116 CONDUIT    665.53     0  03:01      0.90    0.85    0.89
  WS02006113WS02006111 CONDUIT    687.33     0  03:03      2.60    0.82    0.54
  WS02006112WS02006115 CONDUIT    668.79     0  03:01      0.87    0.39    0.94
  WS02006111WS02006112 CONDUIT    655.57     0  03:03      1.72    0.31    0.72
  WS02006110WS02006113 CONDUIT    656.76     0  03:02      1.49    0.60    0.82
  WS02006109WS02006110 CONDUIT    655.12     0  03:03      1.30    1.26    1.00
  WS02004411WS02004412 CONDUIT    661.88     0  03:05      1.03    0.94    0.76
  WS02004401WS02004402 CONDUIT    663.43     0  03:03      0.85    0.80    0.98
  WS02004413WS02003067 CONDUIT    661.71     0  03:05      1.25    0.28    0.64
  WS02004412WS02004413 CONDUIT    661.72     0  03:05      0.94    0.44    0.84
  WS02004410WS02004411 CONDUIT    661.89     0  03:05      1.03    0.90    0.76
  WS02004409WS02004410 CONDUIT    662.11     0  03:04      1.04    0.86    0.76
  WS02004407WS02004409 CONDUIT    662.45     0  03:04      1.53    0.23    0.54
  WS02004406WS02004407 CONDUIT    662.69     0  03:02      1.20    0.30    0.66
  WS02004405WS02004406 CONDUIT    662.54     0  03:04      0.84    1.31    1.00
  WS02004404WS02004405 CONDUIT    662.45     0  03:04      0.84    6.49    1.00
  WS02004403WS02004404 CONDUIT    662.29     0  03:04      0.84    0.48    1.00
  WS02004402WS02004403 CONDUIT    662.79     0  03:04      0.85    0.95    0.99
  WS02004139WS02001211 CONDUIT    380.19     0  04:00      0.69    0.48    0.60
  WS02004138WS02004139 CONDUIT    380.00     0  03:52      2.94    0.08    0.44
  WS02003067WS02003066 CONDUIT    661.81     0  03:05      1.36    0.21    0.45
  WS02001213WS02003059 CONDUIT    387.64     0  04:01      0.68    0.64    0.79
  WS02001212WS02001213 CONDUIT    387.45     0  04:00      1.31    0.60    0.49
  WS02001211WS02001212 CONDUIT    387.45     0  04:00      0.77    0.30    0.66
  WS02003072WS02003073 CONDUIT   1025.11     0  03:12      1.78    2.21    0.51
  WS02003069WS02003072 CONDUIT   1025.03     0  03:12      1.67    0.49    0.53
  WS02003060WS02003069 CONDUIT   1024.68     0  03:11      1.90    0.40    0.48
  WS02003059WS02003060 CONDUIT    387.88     0  04:01      0.93    0.25    0.69
  HS02004901HS02004770 CONDUIT     17.71     0  03:01      0.07    0.07    0.39
  HS02004876HS02004881 CONDUIT     71.90     0  03:01      0.92    0.76    0.11
  HS02004870HS02004876 CONDUIT     58.03     0  03:01      0.63    0.04    0.13
  HS02004842HS02004848 CONDUIT     11.42     0  03:01      0.05    0.01    0.30
  HS02004837HS02004842 CONDUIT     11.94     0  03:02      0.41    0.01    0.32
  HS02004830HS02004837 CONDUIT     41.69     0  03:01      0.56    0.04    0.11
  HS02004824HS02004830 CONDUIT     41.67     0  03:01      0.58    0.05    0.10
  HS02004817HS02004824 CONDUIT     81.58     0  03:01      0.25    0.04    0.47
  HS02004770HS02004777 CONDUIT     90.21     0  03:01      0.32    0.16    0.41
  HS02004799HS02004480 CONDUIT    226.97     0  03:01      0.78    0.29    0.42
  HS02004792HS02004799 CONDUIT    206.60     0  03:01      0.88    0.13    0.33
  HS02004788HS02004792 CONDUIT    118.94     0  03:01      1.01    0.08    0.17
  HS02004785HS02004788 CONDUIT     89.52     0  03:02      0.66    0.67    0.19
  HS02004777HS02004785 CONDUIT     89.64     0  03:01      0.38    0.11    0.33
  HS02004480HS02004478 CONDUIT    269.12     0  03:01      1.20    1.13    0.32
  HS02004479HS02004480 CONDUIT     44.17     0  03:02      0.23    0.04    0.40
  HS02004862HS02004870 CONDUIT     44.23     0  03:01      0.64    0.05    0.10
  HS02004848HS02004852 CONDUIT     20.44     0  03:01      0.44    0.02    0.07
  HS02004856HS02004862 CONDUIT     30.57     0  03:01      0.47    0.03    0.09
  HS02004852HS02004856 CONDUIT     20.26     0  03:01      0.24    0.02    0.12
  HS02004802HS02004478 CONDUIT    106.59     0  03:02      0.45    0.09    0.35
  HS02004478WS02006287 CONDUIT    375.27     0  03:01      1.68    0.11    0.25
  HS02004817HS02004807 CONDUIT     82.18     0  03:01      0.19    0.05    0.62
  HS02004807HS02004802 CONDUIT    106.49     0  03:01      0.38    0.20    0.40
  YS02001759YS02001757 CONDUIT    660.11     0  02:55      0.84    0.47    1.00
  YS02001762YS02001759 CONDUIT    336.49     0  02:54      0.43    0.39    1.00
  YS02001765YS02001762 CONDUIT    336.19     0  02:54      0.43    0.32    1.00
  YS02001770YS02001767 CONDUIT    335.01     0  02:54      0.43    1.33    1.00
  YS02001774YS02001770 CONDUIT    260.78     0  03:31      0.33    0.17    1.00
  YS02001779YS02001774 CONDUIT    261.12     0  03:31      0.33    0.13    1.00
  YS02001649YS02001757 CONDUIT    928.40     0  02:49      1.18    0.56    1.00
  YS02001767YS02001765 CONDUIT    335.80     0  02:54      0.43    0.42    1.00
  YS02006561YS02001783 CONDUIT    964.38     0  03:00      2.09    0.50    1.00
  YS02001783YS02001784 CONDUIT    964.31     0  03:00      1.92    1.33    1.00
  YS02001784YS02001785 CONDUIT    965.38     0  03:00      1.92    2.25    1.00
  YS02001788YS02001790 CONDUIT    965.44     0  03:00      2.21    0.71    1.00
  YS02001790YS02001791 CONDUIT    965.63     0  03:00      2.60    1.05    1.00
  YS02001791YS02001793 CONDUIT    965.72     0  03:00      5.20    0.41    1.00
  YS02001910YS02001907 CONDUIT    431.01     0  02:54      0.55    0.24    1.00
  YS02001786YS02001788 CONDUIT    965.36     0  03:00      2.13    1.86    1.00
  YS02001915YS02001910 CONDUIT    430.98     0  02:54      0.55    0.21    1.00
  YS02001918YS02001915 CONDUIT    196.14     0  02:54      0.44    0.11    1.00
  YS02001923YS02001920 CONDUIT    192.63     0  02:54      0.68    0.09    1.00
  YS02001926YS02001923 CONDUIT    209.58     0  02:54      0.79    0.30    0.89
  YS02001929YS02001926 CONDUIT    178.11     0  02:54      0.84    0.08    0.79
  YS02001920YS02001918 CONDUIT    195.57     0  02:54      0.67    0.19    1.00
  YS02001629YS02163301 CONDUIT    207.38     0  02:49      0.26    0.26    1.00
  YS02001619YS02001622 CONDUIT    257.54     0  03:01      0.61    0.38    1.00
  YS02001622YS02001625 CONDUIT    257.41     0  03:01      0.33    0.14    1.00
  YS02001625YS02001629 CONDUIT    207.00     0  02:49      0.26    0.10    1.00
  YS02163301YS02001633 CONDUIT    207.72     0  02:49      0.26    0.20    1.00
  YS02163601YS02164001 CONDUIT    436.80     0  02:49      0.56    0.39    1.00
  YS02164001YS02001641 CONDUIT    437.09     0  02:49      0.56    0.60    1.00
  YS02001641YS02001644 CONDUIT    437.19     0  02:49      0.56    1.41    1.00
  YS02001647YS02001649 CONDUIT    661.88     0  02:49      0.84    0.35    1.00
  YS02006553YS02006556 CONDUIT    666.42     0  03:16      0.85    0.57    1.00
  YS02006556YS02006558 CONDUIT    666.68     0  03:16      0.85    0.53    1.00
  YSB6556YSB1171       CONDUIT     24.81     0  03:03      0.09    0.03    0.67
  YS02001907YS02006553 CONDUIT    666.56     0  03:16      0.74    0.78    1.00
  YS02006558YS02006561 CONDUIT    964.26     0  03:00      3.41    2.13    1.00
  YS02001633YS02163601 CONDUIT    436.43     0  02:49      0.56    0.46    1.00
  YS02001644YS02001647 CONDUIT    662.11     0  02:49      0.84    0.39    1.00
  YS02001745YS02001748 CONDUIT    604.90     0  02:40      1.48    0.23    0.94
  YS02001748YS02001751 CONDUIT    320.05     0  02:32      1.05    0.16    1.00
  YS02001751YS02001754 CONDUIT    307.71     0  03:01      0.88    0.15    1.00
  YS02001754YS02001757 CONDUIT    307.74     0  03:01      0.39    0.12    1.00
  YS02001882YS02001884 CONDUIT     16.83     0  02:45      0.09    0.02    1.00
  YS02001884YS02001887 CONDUIT     27.72     0  02:34      0.05    0.04    1.00
  YS02001890YS02001895 CONDUIT    453.63     0  03:01      0.58    0.21    1.00
  YS02001895YS02001898 CONDUIT    453.52     0  03:01      0.58    0.79    1.00
  YS02001898YS02001901 CONDUIT    453.70     0  03:01      0.58    0.29    1.00
  YS02001901YS02001904 CONDUIT    453.76     0  03:01      0.58    0.70    1.00
  YS02001904YS02001907 CONDUIT    453.80     0  03:01      0.58    0.16    1.00
  YS02001887YS02001890 CONDUIT    453.48     0  03:01      0.58    0.78    1.00
  YS02001652YS02001649 CONDUIT    372.34     0  03:01      0.50    0.18    1.00
  YS02001655YS02001652 CONDUIT    372.29     0  03:01      0.93    0.18    1.00
  YS02001658YS02001655 CONDUIT    372.28     0  03:01      1.21    0.16    1.00
  YS02001661YS02001658 CONDUIT    644.39     0  02:37      1.56    0.25    1.00
  YS02001664YS02001661 CONDUIT    692.22     0  02:54      1.51    0.22    0.71
  YSB1154YSB6556       CONDUIT     24.91     0  03:01      0.19    0.04    0.56
  YSB1174YSB1171       CONDUIT     18.78     0  03:01      0.07    0.03    0.68
  YSB1171HS02004479    CONDUIT     42.82     0  03:02      0.54    0.03    0.53
  HS02004881HS02006253 CONDUIT     79.15     0  03:01      1.83    0.02    0.30
  YS02001793JiankangQianchi CONDUIT   1019.99     0  02:27     12.71    0.08    1.00
  YS02001757CaochengTiaoxuchi CONDUIT   1762.93     0  02:51      2.34    0.77    1.00
  WSF200WS02003060     CONDUIT    662.26     0  03:06      2.00    0.15    0.37
  1                    CONDUIT   1026.94     0  03:13      3.35    0.36    0.41
  2                    CONDUIT    214.68     0  02:50      5.94    0.51    0.51
  3                    CONDUIT    597.65     0  00:00     10.05    0.95    0.86
  4                    CONDUIT      0.00     0  00:00      0.00    0.00    0.00
  CC-Pump-1            PUMP       200.00     0  01:59              1.00
  CC-Pump-2            PUMP       200.00     0  02:30              1.00
  JK-Pump-1            PUMP       300.00     0  00:00              1.00
  JK-Pump-2            PUMP       300.00     0  00:00              1.00
  XR-Pump-1            PUMP        95.00     0  00:00              1.00
  XR-Pump-2            PUMP        95.00     0  00:40              1.00
  XR-Pump-3            PUMP        95.00     0  00:20              1.00
  XR-Pump-4            PUMP        95.00     0  00:00              1.00
  
  
  ***************************
  Flow Classification Summary
  ***************************
  
  -------------------------------------------------------------------------------------
                      Adjusted    ---------- Fraction of Time in Flow Class ---------- 
                       /Actual         Up    Down  Sub   Sup   Up    Down  Norm  Inlet 
  Conduit               Length    Dry  Dry   Dry   Crit  Crit  Crit  Crit  Ltd   Ctrl  
  -------------------------------------------------------------------------------------
  WS02003066WSF200        1.00   0.04  0.02  0.00  0.00  0.94  0.00  0.00  0.59  0.00
  WS02006287WS02006284    1.00   0.03  0.01  0.00  0.58  0.37  0.00  0.00  0.65  0.00
  WS02006284WS02006280    1.00   0.04  0.00  0.00  0.00  0.00  0.00  0.96  0.00  0.00
  WS02006280WS02006229    1.00   0.04  0.00  0.00  0.00  0.00  0.00  0.96  0.00  0.00
  WS02006229WS02006228    1.00   0.00  0.00  0.00  0.98  0.00  0.00  0.02  0.00  0.00
  WS02006256WS02006235    1.00   0.00  0.00  0.00  1.00  0.00  0.00  0.00  0.00  0.00
  WS02006253WS02006251    1.00   0.02  0.01  0.00  0.97  0.00  0.00  0.00  0.00  0.00
  WS02006252WS02006251    1.00   0.06  0.00  0.00  0.00  0.00  0.94  0.00  0.00  0.00
  WS02006251WS02006249    1.00   0.00  0.00  0.00  1.00  0.00  0.00  0.00  0.23  0.00
  WS02006249WS02006248    1.00   0.00  0.02  0.00  0.91  0.00  0.07  0.00  0.00  0.00
  WS02006248WS02006247    1.00   0.02  0.00  0.00  0.97  0.00  0.00  0.01  0.12  0.00
  WS02006247WS02006245    1.00   0.02  0.00  0.00  0.97  0.00  0.00  0.02  0.00  0.00
  WS02006245WS02006243    1.00   0.01  0.00  0.00  0.95  0.00  0.00  0.03  0.02  0.00
  WS02006243WS02006242    1.00   0.01  0.00  0.00  0.99  0.00  0.00  0.00  0.21  0.00
  WS02006242WS02006240    1.00   0.00  0.00  0.00  1.00  0.00  0.00  0.00  0.00  0.00
  WS02006240WS02006239    1.00   0.00  0.00  0.00  0.97  0.00  0.00  0.03  0.02  0.00
  WS02006239WS02006238    1.00   0.00  0.00  0.00  1.00  0.00  0.00  0.00  0.01  0.00
  WS02006238WS02006235    1.00   0.00  0.00  0.00  1.00  0.00  0.00  0.00  0.00  0.00
  WS02006235WS02006234    1.00   0.00  0.00  0.00  0.96  0.00  0.04  0.00  0.00  0.00
  WS02006234WS02006232    1.00   0.00  0.00  0.00  1.00  0.00  0.00  0.00  0.07  0.00
  WS02006232WS02006231    1.00   0.00  0.00  0.00  0.99  0.00  0.01  0.00  0.00  0.00
  WS02006231WS02006230    1.00   0.00  0.00  0.00  0.75  0.00  0.25  0.00  0.00  0.00
  WS02006230WS02006229    1.00   0.00  0.00  0.00  0.98  0.00  0.00  0.02  0.01  0.00
  WS02006228WS02006109    1.00   0.00  0.00  0.00  1.00  0.00  0.00  0.00  0.00  0.00
  WS02006116WS02004401    1.00   0.02  0.00  0.00  0.98  0.00  0.00  0.00  0.00  0.00
  WS02006115WS02006116    1.00   0.02  0.00  0.00  0.97  0.00  0.00  0.01  0.01  0.00
  WS02006113WS02006111    1.00   0.02  0.00  0.00  0.00  0.98  0.00  0.00  0.10  0.00
  WS02006112WS02006115    1.00   0.02  0.00  0.00  0.98  0.00  0.00  0.00  0.00  0.00
  WS02006111WS02006112    1.00   0.02  0.00  0.00  0.98  0.00  0.00  0.00  0.91  0.00
  WS02006110WS02006113    1.00   0.01  0.00  0.00  0.98  0.00  0.00  0.00  0.00  0.00
  WS02006109WS02006110    1.00   0.00  0.01  0.00  0.98  0.00  0.00  0.00  0.00  0.00
  WS02004411WS02004412    1.00   0.04  0.00  0.00  0.96  0.00  0.00  0.00  0.00  0.00
  WS02004401WS02004402    1.00   0.02  0.00  0.00  0.98  0.00  0.00  0.00  0.00  0.00
  WS02004413WS02003067    1.00   0.05  0.01  0.00  0.00  0.00  0.94  0.00  0.00  0.00
  WS02004412WS02004413    1.00   0.05  0.00  0.00  0.95  0.00  0.00  0.00  0.01  0.00
  WS02004410WS02004411    1.00   0.04  0.00  0.00  0.96  0.00  0.00  0.00  0.00  0.00
  WS02004409WS02004410    1.00   0.04  0.00  0.00  0.96  0.00  0.00  0.00  0.00  0.00
  WS02004407WS02004409    1.00   0.04  0.00  0.00  0.95  0.00  0.00  0.00  0.80  0.00
  WS02004406WS02004407    1.00   0.00  0.04  0.00  0.96  0.00  0.00  0.00  0.00  0.00
  WS02004405WS02004406    1.00   0.00  0.00  0.00  1.00  0.00  0.00  0.00  0.02  0.00
  WS02004404WS02004405    1.00   0.00  0.00  0.00  1.00  0.00  0.00  0.00  0.00  0.00
  WS02004403WS02004404    1.00   0.00  0.02  0.00  0.98  0.00  0.00  0.00  0.02  0.00
  WS02004402WS02004403    1.00   0.02  0.00  0.00  0.98  0.00  0.00  0.00  0.00  0.00
  WS02004139WS02001211    1.00   0.00  0.00  0.00  0.99  0.00  0.01  0.00  0.00  0.00
  WS02004138WS02004139    1.00   0.00  0.00  0.00  0.99  0.01  0.00  0.00  1.00  0.00
  WS02003067WS02003066    1.00   0.06  0.00  0.00  0.94  0.00  0.00  0.00  0.00  0.00
  WS02001213WS02003059    1.00   0.00  0.00  0.00  0.99  0.00  0.00  0.00  0.00  0.00
  WS02001212WS02001213    1.00   0.01  0.00  0.00  0.89  0.00  0.10  0.00  0.00  0.00
  WS02001211WS02001212    1.00   0.00  0.01  0.00  0.99  0.00  0.00  0.00  0.00  0.00
  WS02003072WS02003073    1.00   0.00  0.00  0.00  0.00  0.00  0.00  1.00  0.00  0.00
  WS02003069WS02003072    1.00   0.00  0.00  0.00  0.99  0.01  0.00  0.00  0.22  0.00
  WS02003060WS02003069    1.00   0.00  0.00  0.00  0.98  0.02  0.00  0.00  0.10  0.00
  WS02003059WS02003060    1.00   0.00  0.00  0.00  0.99  0.01  0.00  0.00  0.01  0.00
  HS02004901HS02004770    1.00   0.03  0.00  0.00  0.97  0.00  0.00  0.00  0.00  0.00
  HS02004876HS02004881    1.00   0.02  0.00  0.00  0.89  0.09  0.00  0.00  0.00  0.00
  HS02004870HS02004876    1.00   0.01  0.00  0.00  0.99  0.00  0.00  0.00  0.95  0.00
  HS02004842HS02004848    1.00   0.00  0.03  0.00  0.97  0.00  0.00  0.00  0.58  0.00
  HS02004837HS02004842    1.00   0.00  0.00  0.00  0.99  0.01  0.00  0.00  0.11  0.00
  HS02004830HS02004837    1.00   0.00  0.00  0.00  1.00  0.00  0.00  0.00  0.99  0.00
  HS02004824HS02004830    1.00   0.00  0.00  0.00  1.00  0.00  0.00  0.00  0.00  0.00
  HS02004817HS02004824    1.00   0.00  0.00  0.00  1.00  0.00  0.00  0.00  1.00  0.00
  HS02004770HS02004777    1.00   0.00  0.03  0.00  0.97  0.00  0.00  0.00  0.03  0.00
  HS02004799HS02004480    1.00   0.00  0.02  0.00  0.96  0.00  0.02  0.00  0.00  0.00
  HS02004792HS02004799    1.00   0.00  0.00  0.00  0.99  0.01  0.00  0.00  0.98  0.00
  HS02004788HS02004792    1.00   0.00  0.00  0.00  0.99  0.01  0.00  0.00  0.98  0.00
  HS02004785HS02004788    1.00   0.00  0.00  0.00  1.00  0.00  0.00  0.00  0.00  0.00
  HS02004777HS02004785    1.00   0.00  0.00  0.00  1.00  0.00  0.00  0.00  0.14  0.00
  HS02004480HS02004478    1.00   0.04  0.00  0.00  0.66  0.00  0.00  0.30  0.00  0.00
  HS02004479HS02004480    1.00   0.02  0.00  0.00  0.98  0.00  0.00  0.00  0.13  0.00
  HS02004862HS02004870    1.00   0.00  0.00  0.00  1.00  0.00  0.00  0.00  0.05  0.00
  HS02004848HS02004852    1.00   0.03  0.00  0.00  0.97  0.00  0.00  0.00  0.61  0.00
  HS02004856HS02004862    1.00   0.00  0.05  0.00  0.95  0.00  0.00  0.00  0.80  0.00
  HS02004852HS02004856    1.00   0.03  0.00  0.00  0.96  0.00  0.00  0.00  0.85  0.00
  HS02004802HS02004478    1.00   0.04  0.00  0.00  0.96  0.00  0.00  0.00  0.03  0.00
  HS02004478WS02006287    1.00   0.04  0.00  0.00  0.73  0.23  0.00  0.00  0.66  0.00
  HS02004817HS02004807    1.00   0.00  0.03  0.00  0.97  0.00  0.00  0.00  0.01  0.00
  HS02004807HS02004802    1.00   0.03  0.00  0.00  0.96  0.00  0.00  0.00  0.00  0.00
  YS02001759YS02001757    1.00   0.00  0.00  0.00  1.00  0.00  0.00  0.00  0.16  0.00
  YS02001762YS02001759    1.00   0.00  0.00  0.00  1.00  0.00  0.00  0.00  0.04  0.00
  YS02001765YS02001762    1.00   0.00  0.00  0.00  1.00  0.00  0.00  0.00  0.16  0.00
  YS02001770YS02001767    1.00   0.00  0.00  0.00  1.00  0.00  0.00  0.00  0.00  0.00
  YS02001774YS02001770    1.00   0.00  0.03  0.00  0.96  0.00  0.00  0.00  0.04  0.00
  YS02001779YS02001774    1.00   0.00  0.00  0.00  1.00  0.00  0.00  0.00  0.21  0.00
  YS02001649YS02001757    1.00   0.00  0.00  0.00  1.00  0.00  0.00  0.00  0.17  0.00
  YS02001767YS02001765    1.00   0.00  0.00  0.00  1.00  0.00  0.00  0.00  0.00  0.00
  YS02006561YS02001783    1.00   0.05  0.00  0.00  0.36  0.59  0.00  0.00  0.53  0.00
  YS02001783YS02001784    1.00   0.00  0.05  0.00  0.95  0.00  0.00  0.00  0.01  0.00
  YS02001784YS02001785    1.00   0.00  0.00  0.00  1.00  0.00  0.00  0.00  0.20  0.00
  YS02001788YS02001790    1.00   0.00  0.00  0.00  0.48  0.52  0.00  0.00  0.52  0.00
  YS02001790YS02001791    1.00   0.00  0.00  0.00  0.46  0.54  0.00  0.00  0.43  0.00
  YS02001791YS02001793    1.00   0.00  0.00  0.00  0.52  0.48  0.00  0.00  0.07  0.00
  YS02001910YS02001907    1.00   0.00  0.00  0.00  0.98  0.00  0.00  0.02  0.13  0.00
  YS02001786YS02001788    1.00   0.00  0.00  0.00  0.43  0.57  0.00  0.00  0.00  0.00
  YS02001915YS02001910    1.00   0.00  0.00  0.00  0.99  0.01  0.00  0.00  0.18  0.00
  YS02001918YS02001915    1.00   0.00  0.01  0.00  0.99  0.00  0.00  0.00  0.58  0.00
  YS02001923YS02001920    1.00   0.00  0.00  0.00  1.00  0.00  0.00  0.00  0.85  0.00
  YS02001926YS02001923    1.00   0.00  0.03  0.00  0.16  0.00  0.82  0.00  0.00  0.00
  YS02001929YS02001926    1.00   0.00  0.03  0.00  0.97  0.00  0.00  0.00  0.78  0.00
  YS02001920YS02001918    1.00   0.00  0.01  0.00  0.99  0.00  0.00  0.00  0.00  0.00
  YS02001629YS02163301    1.00   0.04  0.00  0.00  0.96  0.00  0.00  0.00  0.00  0.00
  YS02001619YS02001622    1.00   0.03  0.00  0.00  0.97  0.00  0.00  0.00  0.00  0.00
  YS02001622YS02001625    1.00   0.03  0.00  0.00  0.97  0.00  0.00  0.00  0.07  0.00
  YS02001625YS02001629    1.00   0.03  0.01  0.00  0.94  0.00  0.01  0.00  0.00  0.00
  YS02163301YS02001633    1.00   0.00  0.04  0.00  0.96  0.00  0.00  0.00  0.00  0.00
  YS02163601YS02164001    1.00   0.00  0.03  0.00  0.97  0.00  0.00  0.00  0.00  0.00
  YS02164001YS02001641    1.00   0.01  0.02  0.00  0.97  0.00  0.00  0.00  0.06  0.00
  YS02001641YS02001644    1.00   0.00  0.01  0.00  0.99  0.00  0.00  0.00  0.00  0.00
  YS02001647YS02001649    1.00   0.00  0.04  0.00  0.95  0.00  0.00  0.00  0.01  0.00
  YS02006553YS02006556    1.00   0.02  0.00  0.00  0.98  0.00  0.00  0.00  0.03  0.00
  YS02006556YS02006558    1.00   0.00  0.00  0.00  1.00  0.00  0.00  0.00  0.00  0.00
  YSB6556YSB1171          1.00   0.02  0.01  0.00  0.97  0.00  0.00  0.00  0.00  0.00
  YS02001907YS02006553    1.00   0.00  0.01  0.00  0.98  0.00  0.00  0.00  0.00  0.00
  YS02006558YS02006561    1.00   0.05  0.00  0.00  0.20  0.75  0.00  0.00  0.48  0.00
  YS02001633YS02163601    1.00   0.00  0.01  0.00  0.99  0.00  0.00  0.00  0.16  0.00
  YS02001644YS02001647    1.00   0.00  0.05  0.00  0.95  0.00  0.00  0.00  0.00  0.00
  YS02001745YS02001748    1.00   0.00  0.00  0.00  0.90  0.01  0.00  0.10  0.04  0.00
  YS02001748YS02001751    1.00   0.00  0.00  0.00  0.97  0.03  0.00  0.00  0.15  0.00
  YS02001751YS02001754    1.00   0.00  0.00  0.00  0.95  0.00  0.00  0.05  0.02  0.00
  YS02001754YS02001757    1.00   0.00  0.00  0.00  0.99  0.01  0.00  0.00  0.20  0.00
  YS02001882YS02001884    1.00   0.04  0.00  0.00  0.96  0.00  0.00  0.00  0.00  0.00
  YS02001884YS02001887    1.00   0.02  0.01  0.00  0.97  0.00  0.00  0.00  0.00  0.00
  YS02001890YS02001895    1.00   0.00  0.04  0.00  0.96  0.00  0.00  0.00  0.00  0.00
  YS02001895YS02001898    1.00   0.04  0.00  0.00  0.95  0.00  0.01  0.00  0.00  0.00
  YS02001898YS02001901    1.00   0.04  0.00  0.00  0.96  0.00  0.00  0.00  0.02  0.00
  YS02001901YS02001904    1.00   0.04  0.00  0.00  0.96  0.00  0.00  0.00  0.00  0.00
  YS02001904YS02001907    1.00   0.00  0.04  0.00  0.96  0.00  0.00  0.00  0.00  0.00
  YS02001887YS02001890    1.00   0.00  0.00  0.00  0.98  0.00  0.02  0.00  0.00  0.00
  YS02001652YS02001649    1.00   0.00  0.00  0.00  1.00  0.00  0.00  0.00  0.18  0.00
  YS02001655YS02001652    1.00   0.00  0.00  0.00  0.95  0.00  0.00  0.05  0.02  0.00
  YS02001658YS02001655    1.00   0.00  0.04  0.00  0.94  0.03  0.00  0.00  0.11  0.00
  YS02001661YS02001658    1.00   0.04  0.00  0.00  0.90  0.06  0.00  0.00  0.05  0.00
  YS02001664YS02001661    1.00   0.03  0.00  0.00  0.89  0.07  0.00  0.00  0.22  0.00
  YSB1154YSB6556          1.00   0.03  0.00  0.00  0.97  0.00  0.00  0.00  0.02  0.00
  YSB1174YSB1171          1.00   0.02  0.01  0.00  0.97  0.00  0.00  0.00  0.00  0.00
  YSB1171HS02004479       1.00   0.02  0.00  0.00  0.98  0.00  0.00  0.00  0.11  0.00
  HS02004881HS02006253    1.00   0.02  0.00  0.00  0.81  0.02  0.00  0.15  0.65  0.00
  YS02001793JiankangQianchi    1.00   0.00  0.00  0.00  0.67  0.32  0.00  0.00  0.13  0.00
  YS02001757CaochengTiaoxuchi    1.00   0.00  0.06  0.00  0.94  0.00  0.00  0.00  0.00  0.00
  WSF200WS02003060        1.00   0.00  0.04  0.00  0.65  0.31  0.00  0.00  0.26  0.00
  1                       1.00   0.00  0.00  0.00  0.00  1.00  0.00  0.00  0.35  0.00
  2                       1.00   0.55  0.00  0.00  0.00  0.44  0.00  0.00  0.08  0.00
  3                       1.00   0.08  0.00  0.00  0.00  0.92  0.00  0.00  0.02  0.00
  4                       1.00   1.00  0.00  0.00  0.00  0.00  0.00  0.00  0.00  0.00
  
  
  *************************
  Conduit Surcharge Summary
  *************************
  
  ----------------------------------------------------------------------------
                                                           Hours        Hours 
                         --------- Hours Full --------   Above Full   Capacity
  Conduit                Both Ends  Upstream  Dnstream   Normal Flow   Limited
  ----------------------------------------------------------------------------
  WS02006229WS02006228        2.89      3.06      2.89      4.99         2.89
  WS02006256WS02006235        6.04      6.04      7.42      2.97         0.01
  WS02006253WS02006251        0.01      0.01      0.07      0.01         0.01
  WS02006252WS02006251        1.50      1.50      2.40      2.17         0.01
  WS02006251WS02006249        0.01      0.01      0.01      1.69         0.01
  WS02006249WS02006248        0.01      0.01      0.01      4.73         0.01
  WS02006248WS02006247        0.01      0.01      0.04      0.01         0.01
  WS02006247WS02006245        0.01      0.11      0.01      5.13         0.01
  WS02006245WS02006243        0.07      0.07      0.40      0.01         0.01
  WS02006243WS02006242        0.48      0.48      2.07      0.01         0.01
  WS02006242WS02006240        0.90      0.90      2.42      2.05         0.01
  WS02006240WS02006239        1.15      1.15      1.25      0.05         0.01
  WS02006239WS02006238        2.31      2.31      2.42      0.11         0.07
  WS02006238WS02006235        2.30      2.30      2.68      0.01         0.01
  WS02006235WS02006234        0.91      0.91      2.11      6.09         0.01
  WS02006234WS02006232        1.26      1.26      2.87      0.01         0.01
  WS02006232WS02006231        0.76      0.76      2.87      0.01         0.01
  WS02006231WS02006230        0.60      0.60      0.79      6.05         0.01
  WS02006230WS02006229        3.66      4.79      3.66      6.12         3.66
  WS02006228WS02006109        2.97      3.34      2.97      5.59         2.97
  WS02006112WS02006115        0.01      0.01      1.09      0.01         0.01
  WS02006111WS02006112        0.01      0.01      5.02      0.01         0.01
  WS02006110WS02006113        0.01      0.01      3.19      0.01         0.01
  WS02006109WS02006110        0.91      0.91      3.34      0.92         0.01
  WS02004406WS02004407        0.01      0.01      0.41      0.01         0.01
  WS02004405WS02004406        0.41      0.54      0.41      0.98         0.41
  WS02004404WS02004405        0.54      0.66      0.54      6.00         0.54
  WS02004403WS02004404        0.01      0.01      0.66      0.01         0.01
  WS02003072WS02003073        0.01      0.01      0.01      5.43         0.01
  HS02004480HS02004478        0.01      0.01      0.01      0.25         0.01
  YS02001759YS02001757        5.66      5.66      5.74      0.01         0.01
  YS02001762YS02001759        5.64      5.64      5.66      0.01         0.01
  YS02001765YS02001762        5.61      5.61      5.64      0.01         0.01
  YS02001770YS02001767        5.58      5.58      5.59      0.31         0.87
  YS02001774YS02001770        5.57      5.57      5.63      0.01         0.01
  YS02001779YS02001774        5.41      5.41      5.63      0.01         0.01
  YS02001649YS02001757        5.64      5.64      5.74      0.01         0.01
  YS02001767YS02001765        5.59      5.59      5.61      0.01         0.01
  YS02006561YS02001783        0.67      0.67      1.38      0.01         0.01
  YS02001783YS02001784        1.38      1.38      1.44      1.06         1.02
  YS02001784YS02001785        1.39      1.44      1.39      2.10         1.38
  YS02001788YS02001790        1.36      1.36      2.11      0.01         0.01
  YS02001790YS02001791        2.11      2.11      2.22      0.49         0.50
  YS02001791YS02001793        2.22      2.22      2.71      0.01         0.01
  YS02001910YS02001907        1.02      1.02      1.49      0.01         0.01
  YS02001786YS02001788        1.36      1.39      1.36      1.67         1.35
  YS02001915YS02001910        0.79      0.79      1.02      0.01         0.01
  YS02001918YS02001915        0.54      0.54      0.79      0.01         0.01
  YS02001923YS02001920        0.31      0.31      0.57      0.01         0.01
  YS02001920YS02001918        0.54      0.54      0.57      0.01         0.01
  YS02001629YS02163301        5.57      5.57      5.58      0.01         0.01
  YS02001619YS02001622        5.23      5.23      5.27      0.01         0.01
  YS02001622YS02001625        5.27      5.27      5.54      0.01         0.01
  YS02001625YS02001629        5.25      5.25      5.54      0.01         0.01
  YS02163301YS02001633        5.58      5.58      5.61      0.01         0.01
  YS02163601YS02164001        5.61      5.61      5.64      0.01         0.01
  YS02164001YS02001641        5.61      5.61      5.62      0.01         0.02
  YS02001641YS02001644        5.62      5.62      5.62      1.21         1.38
  YS02001647YS02001649        5.52      5.52      5.64      0.01         0.01
  YS02006553YS02006556        1.25      1.25      1.56      0.01         0.01
  YS02006556YS02006558        1.37      1.37      1.62      0.01         0.01
  YS02001907YS02006553        2.09      2.09      2.31      0.01         0.01
  YS02006558YS02006561        0.90      1.21      0.90      1.94         0.90
  YS02001633YS02163601        5.60      5.60      5.64      0.01         0.01
  YS02001644YS02001647        5.52      5.52      5.62      0.01         0.01
  YS02001745YS02001748        0.01      0.01      5.07      0.01         0.01
  YS02001748YS02001751        5.12      5.12      5.23      0.01         0.01
  YS02001751YS02001754        5.23      5.23      5.42      0.01         0.01
  YS02001754YS02001757        5.49      5.49      5.74      0.01         0.01
  YS02001882YS02001884        0.81      0.81      0.84      0.01         0.01
  YS02001884YS02001887        0.90      0.90      0.93      0.01         0.01
  YS02001890YS02001895        0.78      0.78      1.04      0.01         0.01
  YS02001895YS02001898        0.76      0.76      0.78      0.01         0.01
  YS02001898YS02001901        0.79      0.79      0.90      0.01         0.01
  YS02001901YS02001904        0.87      0.87      0.90      0.01         0.01
  YS02001904YS02001907        0.87      0.87      1.57      0.01         0.01
  YS02001887YS02001890        0.97      0.97      1.00      0.01         0.01
  YS02001652YS02001649        5.53      5.53      5.64      0.01         0.01
  YS02001655YS02001652        5.25      5.25      5.46      0.01         0.01
  YS02001658YS02001655        5.10      5.10      5.25      0.01         0.01
  YS02001661YS02001658        0.20      0.20      5.10      0.01         0.01
  YS02001664YS02001661        0.01      0.01      1.09      0.01         0.01
  YS02001793JiankangQianchi        2.62      2.62      3.82      0.01         0.01
  YS02001757CaochengTiaoxuchi        4.90      4.90      5.74      0.01         0.01
  3                           0.01      0.01      0.01      0.01         0.01
  
  
  ***************
  Pumping Summary
  ***************
  
  ---------------------------------------------------------------------------------------------------------
                                                  Min       Avg       Max     Total     Power    % Time Off
                        Percent   Number of      Flow      Flow      Flow    Volume     Usage    Pump Curve
  Pump                 Utilized   Start-Ups       LPS       LPS       LPS  10^6 ltr     Kw-hr    Low   High
  ---------------------------------------------------------------------------------------------------------
  CC-Pump-1               65.16           7      0.00    141.98    200.00     2.561      3.53    0.0   11.4
  CC-Pump-2               56.66           5      0.00    162.64    200.00     2.593      3.59    0.0    5.6
  JK-Pump-1               80.85           8      0.00    160.79    300.00     2.933     28.94    0.0    0.0
  JK-Pump-2               97.87           3      0.00    183.12    300.00     3.933     38.86    0.0    0.0
  XR-Pump-1               87.22           6      0.00     69.46     95.00     1.796     16.13    0.0    0.0
  XR-Pump-2               82.96           8      0.00     68.92     95.00     1.567     11.08    0.0    0.0
  XR-Pump-3               89.35           6      0.00     67.44     95.00     1.738     14.36    0.0    0.0
  XR-Pump-4               65.95           6      0.00     70.68     95.00     1.340     10.65    0.0    0.0
  

  Analysis begun on:  Wed Dec 22 16:54:49 2021
  Analysis ended on:  Wed Dec 22 16:54:53 2021
  Total elapsed time: 00:00:04