
  EPA STORM WATER MANAGEMENT MODEL - VERSION 5.1 (Build 5.3.0.dev0)
  --------------------------------------------------------------

  WARNING 04: minimum elevation drop used for Conduit WS02004404WS02004405
  WARNING 03: negative offset ignored for Link YS02001904YS02001907
  
  *********************************************************
  NOTE: The summary statistics displayed in this report are
  based on results found at every computational time step,  
  not just on results from each reporting time step.
  *********************************************************
  
  ****************
  Analysis Options
  ****************
  Flow Units ............... LPS
  Process Models:
    Rainfall/Runoff ........ YES
    RDII ................... NO
    Snowmelt ............... NO
    Groundwater ............ NO
    Flow Routing ........... YES
    Ponding Allowed ........ NO
    Water Quality .......... NO
  Infiltration Method ...... HORTON
  Flow Routing Method ...... DYNWAVE
  Surcharge Method ......... EXTRAN
  Starting Date ............ 08/28/2015 08:00:00
  Ending Date .............. 08/28/2015 15:50:00
  Antecedent Dry Days ...... 8.0
  Report Time Step ......... 00:01:00
  Wet Time Step ............ 00:01:00
  Dry Time Step ............ 00:01:00
  Routing Time Step ........ 5.00 sec
  Variable Time Step ....... YES
  Maximum Trials ........... 8
  Number of Threads ........ 4
  Head Tolerance ........... 0.001500 m
  
  
  **************************        Volume         Depth
  Runoff Quantity Continuity     hectare-m            mm
  **************************     ---------       -------
  Total Precipitation ......         5.556        12.164
  Evaporation Loss .........         0.000         0.000
  Infiltration Loss ........         1.427         3.124
  Surface Runoff ...........         3.072         6.726
  Final Storage ............         1.058         2.316
  Continuity Error (%) .....        -0.016
  
  
  **************************        Volume        Volume
  Flow Routing Continuity        hectare-m      10^6 ltr
  **************************     ---------     ---------
  Dry Weather Inflow .......         0.616         6.165
  Wet Weather Inflow .......         3.071        30.709
  Groundwater Inflow .......         0.000         0.000
  RDII Inflow ..............         0.000         0.000
  External Inflow ..........         0.102         1.024
  External Outflow .........         2.083        20.826
  Flooding Loss ............         1.282        12.825
  Evaporation Loss .........         0.000         0.000
  Exfiltration Loss ........         0.000         0.000
  Initial Stored Volume ....         0.076         0.761
  Final Stored Volume ......         0.608         6.083
  Continuity Error (%) .....        -2.784
  
  
  *************************
  Highest Continuity Errors
  *************************
  Node HS02004842 (16.24%)
  Node JK-storage (-11.90%)
  Node YS02001884 (11.41%)
  Node YSB1171 (3.12%)
  Node HS02004817 (2.99%)
  
  
  ***************************
  Time-Step Critical Elements
  ***************************
  Link 3 (56.56%)
  Link WS02006252WS02006251 (32.78%)
  Link WS02006238WS02006235 (3.33%)
  Link WS02006280WS02006229 (1.53%)
  
  
  ********************************
  Highest Flow Instability Indexes
  ********************************
  Link YS02001619YS02001622 (40)
  Link YS02163601YS02164001 (39)
  Link YS02163301YS02001633 (39)
  Link YS02001629YS02163301 (38)
  Link YS02164001YS02001641 (36)
  
  
  *************************
  Routing Time Step Summary
  *************************
  Minimum Time Step           :     0.50 sec
  Average Time Step           :     0.80 sec
  Maximum Time Step           :     5.00 sec
  Percent in Steady State     :    -0.00
  Average Iterations per Step :     4.72
  Percent Not Converging      :    23.39
  
  
  ***************************
  Subcatchment Runoff Summary
  ***************************
  
  ------------------------------------------------------------------------------------------------------------------------------
                            Total      Total      Total      Total     Imperv       Perv      Total       Total     Peak  Runoff
                           Precip      Runon       Evap      Infil     Runoff     Runoff     Runoff      Runoff   Runoff   Coeff
  Subcatchment                 mm         mm         mm         mm         mm         mm         mm    10^6 ltr      LPS
  ------------------------------------------------------------------------------------------------------------------------------
  sub0                      12.16       0.00       0.00       0.85      10.05       0.00      10.05        0.01     1.91   0.826
  sub1                      12.16       0.00       0.00       1.34       9.56       0.00       9.56        0.06    14.15   0.786
  sub2                      12.16       0.00       0.00       4.50       6.75       0.00       6.75        0.06    13.75   0.555
  sub3                      12.16       0.00       0.00       4.50       6.71       0.00       6.71        0.15    32.07   0.552
  sub4                      12.16       0.00       0.00       1.34       9.40       0.00       9.40        0.20    40.20   0.773
  sub5                      12.16       0.00       0.00       0.85       9.99       0.00       9.99        0.11    25.19   0.822
  sub7                      12.16       0.00       0.00       1.09       9.81       0.00       9.81        0.03     7.55   0.807
  sub8                      12.16       0.00       0.00       1.09       9.80       0.00       9.80        0.06    14.17   0.806
  sub9                      12.16       0.00       0.00       1.09       9.80       0.00       9.80        0.05    10.64   0.806
  sub10                     12.16       0.00       0.00       0.97       9.89       0.00       9.89        0.11    24.40   0.813
  sub11                     12.16       0.00       0.00       0.97       9.91       0.00       9.91        0.12    26.15   0.815
  sub12                     12.16       0.00       0.00       1.58       9.39       0.00       9.39        0.08    19.06   0.772
  sub14                     12.16       0.00       0.00       1.09       9.80       0.00       9.80        0.09    21.02   0.805
  sub15                     12.16       0.00       0.00       3.65       7.53       0.00       7.53        0.13    29.11   0.619
  sub16                     12.16       0.00       0.00       4.01       7.23       0.00       7.23        0.08    17.47   0.594
  sub17                     12.16       0.00       0.00       3.89       7.34       0.00       7.34        0.06    14.47   0.603
  sub22                     12.16       0.00       0.00       5.23       6.14       0.00       6.14        0.39    88.27   0.505
  sub23                     12.16       0.00       0.00       4.50       6.79       0.00       6.79        0.32    73.89   0.558
  sub60                     12.16       0.00       0.00       1.46       7.71       0.00       7.71        2.34   297.17   0.634
  sub61                     12.16       0.00       0.00       2.07       7.87       0.00       7.87        2.43   359.80   0.647
  sub62                     12.16       0.00       0.00       0.97       8.55       0.00       8.55        2.63   372.87   0.703
  sub63                     12.16       0.00       0.00       3.53       6.89       0.00       6.89        2.09   327.80   0.567
  sub64                     12.16       0.00       0.00       1.82       7.40       0.00       7.40        2.25   282.66   0.608
  sub65                     12.16       0.00       0.00       1.58       7.52       0.00       7.52        2.31   287.20   0.618
  sub66                     12.16       0.00       0.00       3.53       6.36       0.00       6.36        1.95   257.27   0.523
  sub67                     12.16       0.00       0.00       0.97       9.05       0.00       9.05        2.79   452.90   0.744
  sub68                     12.16       0.00       0.00       1.70       8.28       0.00       8.28        2.55   391.99   0.681
  sub69                     12.16       0.00       0.00       1.82       8.61       0.00       8.61        2.01   355.79   0.708
  sub70                     12.16       8.79       0.00       7.03      11.43       0.10      11.53        2.64   335.00   0.550
  sub71                     12.16       0.00       0.00       0.97       8.31       0.00       8.31        1.96   263.63   0.683
  sub72                     12.16       0.00       0.00       0.85       6.56       0.00       6.56        1.34   129.40   0.540
  sub73                     12.16      11.23       0.00       7.88      12.47       0.08      12.54        2.95   300.52   0.536
  sub74                     12.16       0.00       0.00       9.12       2.57       0.00       2.57        1.03   189.59   0.211
  
  
  ******************
  Node Depth Summary
  ******************
  
  ---------------------------------------------------------------------------------
                                 Average  Maximum  Maximum  Time of Max    Reported
                                   Depth    Depth      HGL   Occurrence   Max Depth
  Node                 Type       Meters   Meters   Meters  days hr:min      Meters
  ---------------------------------------------------------------------------------
  WS02001211           JUNCTION     0.66     0.78     5.62     0  07:39        0.78
  WS02001212           JUNCTION     0.39     0.49     5.55     0  07:38        0.49
  WS02001213           JUNCTION     0.63     0.73     5.49     0  07:37        0.73
  WS02003069           JUNCTION     0.46     0.57     5.15     0  02:44        0.57
  WS02003072           JUNCTION     0.52     0.63     5.00     0  02:44        0.63
  WS02003073           JUNCTION     0.31     0.39     4.45     0  02:45        0.39
  WS02003060           JUNCTION     0.41     0.50     5.44     0  02:43        0.50
  WS02003066           JUNCTION     0.25     0.33     5.88     0  03:05        0.33
  WS02003059           JUNCTION     0.69     0.78     5.46     0  07:50        0.78
  WS02003067           JUNCTION     0.60     0.75     6.07     0  03:05        0.75
  WS02004401           JUNCTION     0.72     0.99     6.99     0  03:03        0.99
  WS02004402           JUNCTION     0.75     1.01     6.97     0  03:03        1.01
  WS02004403           JUNCTION     0.76     1.01     6.94     0  03:03        1.01
  WS02004404           JUNCTION     0.84     1.07     6.92     0  03:03        1.07
  WS02004406           JUNCTION     0.84     1.04     6.87     0  03:03        1.04
  WS02004409           JUNCTION     0.53     0.76     6.53     0  03:04        0.76
  WS02004410           JUNCTION     0.55     0.77     6.49     0  03:04        0.77
  WS02004411           JUNCTION     0.56     0.77     6.45     0  03:05        0.77
  WS02004412           JUNCTION     0.58     0.77     6.41     0  03:05        0.77
  WS02004413           JUNCTION     0.73     0.92     6.39     0  03:05        0.92
  WS02004405           JUNCTION     0.83     1.06     6.91     0  03:03        1.06
  WS02006109           JUNCTION     0.80     1.12     7.74     0  03:00        1.11
  WS02006110           JUNCTION     0.79     1.03     7.61     0  02:57        1.01
  WS02006111           JUNCTION     0.24     0.39     7.10     0  03:02        0.39
  WS02006112           JUNCTION     0.89     1.22     7.10     0  03:03        1.21
  WS02006113           JUNCTION     0.37     0.52     7.41     0  03:02        0.51
  WS02006115           JUNCTION     0.61     0.91     7.05     0  03:03        0.91
  WS02006116           JUNCTION     0.69     0.99     7.03     0  03:03        0.99
  WS02006230           JUNCTION     0.79     1.20     7.94     0  03:01        1.19
  WS02006231           JUNCTION     0.53     0.86     7.98     0  03:01        0.85
  WS02006232           JUNCTION     0.67     0.98     8.02     0  03:02        0.97
  WS02006234           JUNCTION     0.59     0.89     8.05     0  03:01        0.89
  WS02006235           JUNCTION     0.63     0.93     8.09     0  03:01        0.92
  WS02006238           JUNCTION     0.65     0.95     8.10     0  03:00        0.94
  WS02006240           JUNCTION     0.55     0.84     8.13     0  03:01        0.84
  WS02006242           JUNCTION     0.61     0.89     8.16     0  03:00        0.89
  WS02006243           JUNCTION     0.49     0.77     8.19     0  03:00        0.77
  WS02006245           JUNCTION     0.46     0.73     8.22     0  03:01        0.73
  WS02006247           JUNCTION     0.47     0.73     8.23     0  03:00        0.73
  WS02006248           JUNCTION     0.42     0.66     8.25     0  03:01        0.66
  WS02006249           JUNCTION     0.45     0.67     8.26     0  03:01        0.67
  WS02006239           JUNCTION     0.61     0.90     8.11     0  03:01        0.90
  WS02006251           JUNCTION     0.44     0.72     8.39     0  03:00        0.72
  WS02006252           JUNCTION     0.38     0.59     8.84     0  03:17        0.59
  WS02006253           JUNCTION     0.47     0.75     8.39     0  03:00        0.75
  WS02006256           JUNCTION     1.08     1.22     8.15     0  03:00        1.22
  WS02004138           JUNCTION     0.15     0.20     7.45     0  00:00        0.19
  WS02004407           JUNCTION     0.24     0.33     6.65     0  03:04        0.33
  WS02006228           JUNCTION     0.81     1.19     7.84     0  03:02        1.18
  WS02006229           JUNCTION     0.79     1.20     7.90     0  03:01        1.20
  WS02006280           JUNCTION     0.07     0.19     8.46     0  03:02        0.19
  WS02006284           JUNCTION     0.37     0.55     8.95     0  03:02        0.55
  WS02006287           JUNCTION     0.10     0.28     9.24     0  03:01        0.28
  WSF200               JUNCTION     0.24     0.34     5.58     0  03:07        0.34
  HS02004901           JUNCTION     0.13     0.28    10.10     0  03:01        0.28
  HS02004881           JUNCTION     0.01     0.04     9.07     0  03:01        0.04
  HS02004876           JUNCTION     0.05     0.12     9.15     0  03:01        0.12
  HS02004870           JUNCTION     0.02     0.06     9.35     0  03:01        0.06
  HS02004862           JUNCTION     0.02     0.07     9.46     0  03:01        0.07
  HS02004856           JUNCTION     0.08     0.13     9.55     0  03:01        0.13
  HS02004852           JUNCTION     0.01     0.05     9.56     0  03:01        0.05
  HS02004848           JUNCTION     0.01     0.05     9.65     0  03:01        0.05
  HS02004842           JUNCTION     0.33     0.38     9.65     0  03:01        0.38
  HS02004837           JUNCTION     0.03     0.07     9.65     0  03:01        0.07
  HS02004830           JUNCTION     0.04     0.08     9.55     0  03:01        0.08
  HS02004824           JUNCTION     0.02     0.06     9.46     0  03:01        0.06
  HS02004817           JUNCTION     0.44     0.60     9.44     0  03:01        0.60
  HS02004807           JUNCTION     0.13     0.27     9.44     0  03:01        0.27
  HS02004802           JUNCTION     0.17     0.30     9.43     0  03:01        0.30
  HS02004799           JUNCTION     0.13     0.33     9.54     0  03:01        0.33
  HS02004792           JUNCTION     0.04     0.14     9.66     0  03:01        0.14
  HS02004788           JUNCTION     0.03     0.10    10.00     0  03:01        0.10
  HS02004785           JUNCTION     0.05     0.17    10.07     0  03:01        0.17
  HS02004777           JUNCTION     0.15     0.30    10.10     0  03:01        0.30
  HS02004770           JUNCTION     0.12     0.27    10.10     0  03:01        0.27
  HS02004480           JUNCTION     0.09     0.26     9.50     0  03:01        0.26
  HS02004479           JUNCTION     0.12     0.30     9.50     0  03:01        0.30
  HS02004478           JUNCTION     0.07     0.18     9.41     0  03:01        0.18
  YS02001745           JUNCTION     0.69     0.87     8.39     0  03:33        0.87
  YS02001748           JUNCTION     1.07     2.27     9.35     0  02:40        1.31
  YS02001751           JUNCTION     1.26     2.18     9.06     0  02:41        1.52
  YS02001754           JUNCTION     1.51     2.17     8.78     0  02:40        1.80
  YS02001762           JUNCTION     1.71     2.07     8.47     0  02:41        2.02
  YS02001765           JUNCTION     1.66     1.98     8.43     0  02:41        1.97
  YS02001767           JUNCTION     1.63     1.93     8.42     0  03:06        1.92
  YS02001770           JUNCTION     1.62     1.95     8.44     0  02:41        1.90
  YS02001774           JUNCTION     1.69     2.02     8.44     0  02:41        1.97
  YS02001779           JUNCTION     1.44     1.68     8.37     0  02:40        1.68
  YS02001882           JUNCTION     0.53     1.61     8.33     0  02:52        1.60
  YS02001884           JUNCTION     0.63     1.71     8.33     0  02:52        1.70
  YS02001759           JUNCTION     1.74     2.10     8.46     0  02:41        2.06
  YS02001887           JUNCTION     0.70     1.79     8.33     0  02:52        1.78
  YS02001890           JUNCTION     0.73     1.81     8.32     0  03:00        1.80
  YS02001898           JUNCTION     0.50     1.56     8.29     0  02:52        1.55
  YS02001901           JUNCTION     0.62     1.67     8.28     0  03:00        1.66
  YS02001904           JUNCTION     0.60     1.63     8.26     0  03:00        1.63
  YS02001907           JUNCTION     0.93     1.96     8.25     0  02:52        1.96
  YS02001910           JUNCTION     0.72     1.78     8.28     0  02:53        1.77
  YS02001915           JUNCTION     0.52     1.59     8.31     0  02:53        1.58
  YS02001918           JUNCTION     0.27     1.26     8.32     0  02:53        1.24
  YS02001619           JUNCTION     1.22     1.61     8.54     0  02:36        1.48
  YS02001629           JUNCTION     1.58     1.85     8.40     0  02:38        1.85
  YS02001641           JUNCTION     1.68     1.94     8.37     0  02:50        1.93
  YS02001644           JUNCTION     1.68     1.92     8.35     0  02:37        1.92
  YS02001652           JUNCTION     1.52     2.16     8.76     0  02:54        2.08
  YS02001655           JUNCTION     1.29     2.20     9.05     0  02:37        2.04
  YS02001920           JUNCTION     0.37     1.33     8.34     0  02:53        1.31
  YS02001923           JUNCTION     0.21     1.09     8.35     0  02:53        1.07
  YS02001926           JUNCTION     0.26     0.90     8.34     0  02:53        0.88
  YS02001929           JUNCTION     0.14     0.68     8.37     0  02:53        0.63
  YS02001658           JUNCTION     1.02     2.30     9.44     0  02:37        2.08
  YS02001661           JUNCTION     0.79     2.46     9.86     0  02:54        2.16
  YS02001664           JUNCTION     0.34     0.58     8.50     0  03:20        0.56
  YS02001622           JUNCTION     1.25     1.62     8.52     0  02:36        1.49
  YS02001633           JUNCTION     1.67     1.94     8.40     0  02:49        1.94
  YS02001649           JUNCTION     1.72     2.05     8.44     0  02:37        2.05
  YS02001757           JUNCTION     1.84     2.21     8.47     0  02:41        2.16
  YS02001895           JUNCTION     0.50     1.56     8.31     0  02:52        1.55
  YS02001625           JUNCTION     1.53     1.78     8.38     0  02:38        1.78
  YS02163301           JUNCTION     1.61     1.90     8.42     0  02:39        1.88
  YS02163601           JUNCTION     1.72     1.99     8.39     0  02:50        1.98
  YS02164001           JUNCTION     1.66     1.92     8.38     0  02:50        1.91
  YS02001647           JUNCTION     1.51     1.80     8.41     0  02:57        1.80
  YSB1154              JUNCTION     0.26     0.45     9.51     0  03:01        0.45
  YSB6556              JUNCTION     0.16     0.34     9.51     0  03:01        0.34
  YSB1174              JUNCTION     0.22     0.40     9.51     0  03:01        0.40
  YSB1171              JUNCTION     0.41     0.60     9.51     0  03:01        0.60
  YS02006553           JUNCTION     0.93     1.96     8.25     0  03:03        1.96
  YS02006561           JUNCTION     0.31     1.09     7.75     0  02:52        1.07
  YS02006556           JUNCTION     0.90     1.92     8.23     0  03:02        1.91
  YS02006558           JUNCTION     0.94     1.96     8.23     0  02:59        1.95
  YS02001783           JUNCTION     0.55     1.47     7.61     0  02:52        1.46
  YS02001784           JUNCTION     0.57     1.64     7.71     0  02:33        1.40
  YS02001786           JUNCTION     0.52     1.87     7.90     0  02:33        1.25
  YS02001788           JUNCTION     0.47     2.28     8.26     0  02:33        1.12
  YS02001790           JUNCTION     0.60     1.96     7.60     0  02:33        1.29
  YS02001791           JUNCTION     0.59     1.72     7.19     0  02:33        1.27
  YS02001793           JUNCTION     0.82     2.64     7.47     0  02:29        1.80
  WS02004139           JUNCTION     0.60     0.73     5.64     0  07:39        0.73
  WSC                  OUTFALL      0.31     0.39     1.06     0  02:46        0.39
  3                    OUTFALL      0.11     0.22     6.22     0  03:00        0.22
  4                    OUTFALL      0.03     0.17     7.17     0  03:01        0.17
  5                    OUTFALL      0.00     0.00     5.00     0  00:00        0.00
  JK-storage           STORAGE      2.92     5.80     6.60     0  02:32        5.80
  CC-storage           STORAGE      1.07     1.38     8.38     0  04:25        1.38
  XR-storage           STORAGE      7.22     7.72     5.72     0  02:30        7.72
  
  
  *******************
  Node Inflow Summary
  *******************
  
  -------------------------------------------------------------------------------------------------
                                  Maximum  Maximum                  Lateral       Total        Flow
                                  Lateral    Total  Time of Max      Inflow      Inflow     Balance
                                   Inflow   Inflow   Occurrence      Volume      Volume       Error
  Node                 Type           LPS      LPS  days hr:min    10^6 ltr    10^6 ltr     Percent
  -------------------------------------------------------------------------------------------------
  WS02001211           JUNCTION      7.35   387.94     0  07:42       0.207        6.78       0.603
  WS02001212           JUNCTION      0.00   388.23     0  07:42           0        6.74       0.352
  WS02001213           JUNCTION      0.00   388.62     0  04:40           0        6.71       0.446
  WS02003069           JUNCTION      0.32   904.25     0  02:43     0.00902        15.7       0.238
  WS02003072           JUNCTION      0.00   904.27     0  02:44           0        15.6       0.281
  WS02003073           JUNCTION      1.82   906.19     0  02:45      0.0514        15.7       0.324
  WS02003060           JUNCTION     16.53   903.87     0  02:43       0.466        15.7       0.224
  WS02003066           JUNCTION      0.00   678.19     0  03:05           0        8.61       0.059
  WS02003059           JUNCTION      0.00   389.30     0  04:40           0        6.68       0.624
  WS02003067           JUNCTION      0.00   677.92     0  03:05           0        8.62       0.120
  WS02004401           JUNCTION      0.00   680.03     0  03:03           0        8.89       0.272
  WS02004402           JUNCTION      0.00   680.25     0  03:03           0        8.86       0.253
  WS02004403           JUNCTION      0.00   680.32     0  03:03           0        8.84       0.228
  WS02004404           JUNCTION      0.16   680.50     0  03:03     0.00457        8.82       0.169
  WS02004406           JUNCTION      0.00   680.66     0  03:04           0        8.79       0.410
  WS02004409           JUNCTION      0.00   680.31     0  03:04           0        8.74       0.224
  WS02004410           JUNCTION      0.00   679.41     0  03:04           0        8.72       0.248
  WS02004411           JUNCTION      0.00   678.71     0  03:04           0         8.7       0.251
  WS02004412           JUNCTION      0.00   678.32     0  03:05           0        8.68       0.266
  WS02004413           JUNCTION      0.00   677.93     0  03:05           0        8.66       0.385
  WS02004405           JUNCTION      0.04   680.52     0  03:03     0.00107        8.81       0.251
  WS02006109           JUNCTION      1.23   671.44     0  03:02      0.0347        8.96       0.250
  WS02006110           JUNCTION      0.00   671.44     0  03:01           0        8.94       0.243
  WS02006111           JUNCTION      0.00   705.92     0  03:02           0        8.91       0.061
  WS02006112           JUNCTION     14.47   684.17     0  03:02      0.0629        8.96       0.355
  WS02006113           JUNCTION      0.00   672.32     0  03:02           0        8.92       0.130
  WS02006115           JUNCTION      0.00   684.64     0  03:03           0        8.93       0.266
  WS02006116           JUNCTION      0.00   681.97     0  03:03           0        8.91       0.248
  WS02006230           JUNCTION     10.28   397.99     0  05:42        0.29        7.08       0.213
  WS02006231           JUNCTION      0.00   387.81     0  05:42           0        6.81       0.217
  WS02006232           JUNCTION      0.00   387.81     0  05:41           0        6.83       0.258
  WS02006234           JUNCTION      0.00   388.89     0  05:22           0        6.84       0.155
  WS02006235           JUNCTION      0.00   388.51     0  06:42           0        6.88       0.174
  WS02006238           JUNCTION      0.00   325.60     0  03:20           0        4.84       0.189
  WS02006240           JUNCTION      0.00   326.95     0  04:42           0        4.84       0.329
  WS02006242           JUNCTION      0.00   338.00     0  04:41           0        4.85       0.384
  WS02006243           JUNCTION      0.00   345.55     0  04:41           0        4.85       0.188
  WS02006245           JUNCTION      0.00   348.94     0  04:41           0        4.87       0.273
  WS02006247           JUNCTION      0.00   352.94     0  04:41           0        4.88       0.210
  WS02006248           JUNCTION      0.00   357.12     0  04:41           0        4.88       0.139
  WS02006249           JUNCTION      0.00   481.76     0  03:01           0        5.62       0.288
  WS02006239           JUNCTION      0.00   323.69     0  03:20           0        4.84       0.279
  WS02006251           JUNCTION      0.08   482.36     0  03:01     0.00217        5.66       0.248
  WS02006252           JUNCTION      0.00   400.00     0  03:00           0        5.27       0.009
  WS02006253           JUNCTION      1.91    81.00     0  03:01     0.00814       0.388       2.159
  WS02006256           JUNCTION      0.00   600.00     0  02:07           0        6.57       0.045
  WS02004138           JUNCTION      0.00   380.00     0  00:00           0        6.61       0.099
  WS02004407           JUNCTION      0.00   680.52     0  03:04           0        8.75       0.101
  WS02006228           JUNCTION      0.00   670.24     0  03:01           0        8.94       0.180
  WS02006229           JUNCTION      0.00   669.25     0  03:02           0        8.96       0.147
  WS02006280           JUNCTION      0.00   375.54     0  03:02           0        1.89       0.004
  WS02006284           JUNCTION      0.10   375.54     0  03:02      0.0027        1.89       0.064
  WS02006287           JUNCTION      0.00   375.26     0  03:01           0        1.89       0.037
  WSF200               JUNCTION      0.00   678.27     0  03:05           0        8.61       0.057
  HS02004901           JUNCTION     17.47    17.47     0  03:01      0.0757      0.0759       2.380
  HS02004881           JUNCTION      7.55    79.19     0  03:01      0.0331       0.357       0.087
  HS02004876           JUNCTION     14.15    72.10     0  03:01      0.0636       0.324       0.171
  HS02004870           JUNCTION     14.17    58.27     0  03:01      0.0626       0.261       0.043
  HS02004862           JUNCTION     13.95    44.46     0  03:01      0.0685       0.198       0.088
  HS02004856           JUNCTION     10.64    30.79     0  03:01      0.0471       0.131       1.117
  HS02004852           JUNCTION      0.00    20.44     0  03:01           0       0.084       0.069
  HS02004848           JUNCTION     32.07    32.07     0  03:01       0.151       0.151       0.033
  HS02004842           JUNCTION      0.00    11.42     0  03:01           0      0.0801      19.389
  HS02004837           JUNCTION     30.75    41.91     0  03:01       0.288       0.355       0.230
  HS02004830           JUNCTION      0.15    41.84     0  03:01     0.00423       0.346       0.359
  HS02004824           JUNCTION     40.25    81.79     0  03:01       0.197       0.542       0.100
  HS02004817           JUNCTION      0.60    82.18     0  03:01      0.0169       0.558       3.079
  HS02004807           JUNCTION     26.15   107.25     0  03:01       0.115       0.657       0.656
  HS02004802           JUNCTION      0.00   106.49     0  03:01           0       0.653       0.619
  HS02004799           JUNCTION     21.02   227.51     0  03:01      0.0932        1.06       0.236
  HS02004792           JUNCTION     88.55   207.33     0  03:01       0.396       0.966       0.043
  HS02004788           JUNCTION     30.78   119.37     0  03:01       0.177       0.571       0.069
  HS02004785           JUNCTION      0.15    89.79     0  03:01     0.00423       0.396       0.125
  HS02004777           JUNCTION      0.03    90.24     0  03:01    0.000846       0.397       1.326
  HS02004770           JUNCTION     73.89    90.93     0  03:01       0.324       0.398       0.787
  HS02004480           JUNCTION      0.00   269.27     0  03:01           0        1.25       0.099
  HS02004479           JUNCTION      0.00    42.82     0  03:02           0       0.204       0.360
  HS02004478           JUNCTION      0.00   375.17     0  03:01           0        1.89       0.018
  YS02001745           JUNCTION    297.18   446.37     0  02:39        2.34        2.35       0.392
  YS02001748           JUNCTION      0.04   629.27     0  02:40     0.00127        2.34       0.963
  YS02001751           JUNCTION      0.01   309.92     0  02:32     0.00031        2.31       1.025
  YS02001754           JUNCTION      0.26   308.95     0  03:01     0.00733        2.29       1.092
  YS02001762           JUNCTION      0.00   330.35     0  02:53           0        1.71       1.242
  YS02001765           JUNCTION      0.00   330.18     0  02:53           0        1.71       1.427
  YS02001767           JUNCTION      0.54   330.12     0  02:53      0.0151        1.73       2.092
  YS02001770           JUNCTION    373.02   373.02     0  03:01        2.63        2.64       1.207
  YS02001774           JUNCTION      0.00   210.55     0  03:39           0       0.907       2.848
  YS02001779           JUNCTION      0.01   210.46     0  03:39    0.000141       0.877       1.788
  YS02001882           JUNCTION      0.00    25.68     0  02:35           0      0.0174      14.556
  YS02001884           JUNCTION      0.00    48.07     0  02:35           0      0.0533      12.879
  YS02001759           JUNCTION    359.84   650.02     0  02:54        2.43        4.09       0.562
  YS02001887           JUNCTION    453.35   453.39     0  03:01         2.8        2.83       0.297
  YS02001890           JUNCTION      0.00   453.55     0  03:01           0        2.79       0.330
  YS02001898           JUNCTION      0.00   453.56     0  03:01           0        2.77       0.113
  YS02001901           JUNCTION      0.00   453.70     0  03:01           0        2.77       0.250
  YS02001904           JUNCTION      0.00   453.56     0  03:01           0        2.77       0.225
  YS02001907           JUNCTION      0.00   861.04     0  02:58           0        6.12       0.391
  YS02001910           JUNCTION      0.00   429.41     0  02:54           0        3.37       0.345
  YS02001915           JUNCTION    263.65   429.24     0  02:54        1.96        3.39       0.180
  YS02001918           JUNCTION      0.00   195.19     0  02:54           0        1.43       0.136
  YS02001619           JUNCTION    257.27   257.27     0  03:01        1.95        1.95       0.626
  YS02001629           JUNCTION      0.00   206.21     0  02:49           0        1.63       1.791
  YS02001641           JUNCTION      0.00   434.49     0  02:49           0        3.84       0.551
  YS02001644           JUNCTION    282.70   918.27     0  03:35        2.25        7.89       0.330
  YS02001652           JUNCTION      0.00   377.47     0  03:01           0        2.04       1.148
  YS02001655           JUNCTION      0.15   377.64     0  03:01     0.00434        2.07       1.231
  YS02001920           JUNCTION      2.87   195.33     0  02:54      0.0809        1.42       0.204
  YS02001923           JUNCTION      0.04   207.97     0  02:54     0.00106        1.34       0.051
  YS02001926           JUNCTION      0.05   174.31     0  02:54     0.00147        1.34       0.247
  YS02001929           JUNCTION    129.40   129.40     0  03:01        1.34        1.34       0.040
  YS02001658           JUNCTION      0.00   651.87     0  02:37           0         2.1       1.065
  YS02001661           JUNCTION      0.00   687.16     0  02:52           0        2.81      -0.291
  YS02001664           JUNCTION    327.80   361.15     0  02:52        2.09        2.81       0.161
  YS02001622           JUNCTION      0.00   257.32     0  03:01           0        1.94       1.670
  YS02001633           JUNCTION    287.40   434.61     0  02:49        2.32         3.9       0.827
  YS02001649           JUNCTION      0.00   923.89     0  02:49           0        5.23       0.718
  YS02001757           JUNCTION      0.00  1752.84     0  02:50           0        9.69       0.961
  YS02001895           JUNCTION      0.00   453.61     0  03:01           0        2.78       0.177
  YS02001625           JUNCTION      0.00   257.32     0  03:01           0         1.9       2.063
  YS02163301           JUNCTION      0.00   206.11     0  02:49           0        1.61       1.509
  YS02163601           JUNCTION      0.11   434.57     0  02:49      0.0031        3.87       0.783
  YS02164001           JUNCTION      0.00   434.86     0  02:49           0        3.84       0.521
  YS02001647           JUNCTION      0.00   658.99     0  02:49           0        4.09       0.695
  YSB1154              JUNCTION     25.19    25.19     0  03:01       0.113       0.114       1.285
  YSB6556              JUNCTION      0.00    24.91     0  03:01           0       0.115       1.100
  YSB1174              JUNCTION     19.06    19.06     0  03:01      0.0821      0.0827       1.581
  YSB1171              JUNCTION      0.00    43.19     0  03:01           0       0.203       3.220
  YS02006553           JUNCTION      0.00   666.81     0  03:16           0         5.9       0.266
  YS02006561           JUNCTION      0.00   963.99     0  03:00           0        8.41       0.005
  YS02006556           JUNCTION      0.00   666.74     0  03:17           0         5.9       0.190
  YS02006558           JUNCTION    392.87   964.25     0  03:01        2.57        8.44       0.066
  YS02001783           JUNCTION      0.00   964.00     0  03:01           0        8.41       0.028
  YS02001784           JUNCTION      1.06   965.06     0  03:00      0.0299        8.44       0.044
  YS02001786           JUNCTION      0.06   965.08     0  03:00     0.00159        8.44       0.040
  YS02001788           JUNCTION      0.07   965.20     0  03:00       0.002        8.44       0.024
  YS02001790           JUNCTION      0.15   965.37     0  03:01     0.00437        8.44       0.029
  YS02001791           JUNCTION      0.00   965.35     0  03:01           0        8.44       0.014
  YS02001793           JUNCTION      0.00   965.41     0  03:01           0        8.44      -0.013
  WS02004139           JUNCTION      0.32   393.28     0  00:00     0.00905        6.62       0.693
  WSC                  OUTFALL       0.00   906.32     0  02:46           0        15.6       0.000
  3                    OUTFALL       0.00   545.08     0  03:00           0         4.5       0.000
  4                    OUTFALL       0.00   247.91     0  03:01           0       0.719       0.000
  5                    OUTFALL       0.00     0.00     0  00:00           0           0       0.000 ltr
  JK-storage           STORAGE       0.00   972.47     0  02:28           0        8.59     -10.638
  CC-storage           STORAGE       0.00  1752.67     0  02:50           0        8.62       0.548
  XR-storage           STORAGE     690.11   690.11     0  03:01        9.61        10.2      -0.000
  
  
  **********************
  Node Surcharge Summary
  **********************
  
  Surcharging occurs when water rises above the top of the highest conduit.
  ---------------------------------------------------------------------
                                               Max. Height   Min. Depth
                                   Hours       Above Crown    Below Rim
  Node                 Type      Surcharged         Meters       Meters
  ---------------------------------------------------------------------
  WS02004402           JUNCTION        0.06          0.008        1.732
  WS02004403           JUNCTION        0.09          0.009        2.021
  WS02004404           JUNCTION        0.57          0.070        2.710
  WS02004406           JUNCTION        0.40          0.040        2.410
  WS02004405           JUNCTION        0.52          0.056        2.744
  WS02006109           JUNCTION        2.91          0.303        1.517
  WS02006110           JUNCTION        0.98          0.120        1.730
  WS02006112           JUNCTION        1.28          0.221        1.459
  WS02006230           JUNCTION        0.54          0.117        1.453
  WS02006231           JUNCTION        0.63          0.146        1.384
  WS02006232           JUNCTION        2.91          0.280        1.200
  WS02006234           JUNCTION        0.83          0.173        1.067
  WS02006235           JUNCTION        1.91          0.217        1.073
  WS02006238           JUNCTION        2.43          0.233        1.197
  WS02006240           JUNCTION        0.71          0.128        1.262
  WS02006242           JUNCTION        1.87          0.162        0.658
  WS02006243           JUNCTION        0.31          0.061        0.709
  WS02006245           JUNCTION        0.15          0.023        0.827
  WS02006247           JUNCTION        0.16          0.025        0.735
  WS02006239           JUNCTION        0.81          0.159        1.131
  WS02006252           JUNCTION        2.51          0.193        0.907
  WS02006228           JUNCTION        2.75          0.363        1.837
  YS02001748           JUNCTION        5.07          1.190        0.000
  YS02001751           JUNCTION        5.23          1.183        0.017
  YS02001754           JUNCTION        5.42          1.123        0.027
  YS02001762           JUNCTION        5.64          1.065        0.085
  YS02001765           JUNCTION        5.61          0.978        0.122
  YS02001767           JUNCTION        5.58          0.931        0.099
  YS02001770           JUNCTION        5.57          0.920        0.000
  YS02001774           JUNCTION        5.63          1.017        0.033
  YS02001779           JUNCTION        5.41          0.680        0.000
  YS02001882           JUNCTION        0.81          0.611        0.219
  YS02001884           JUNCTION        0.84          0.649        0.221
  YS02001759           JUNCTION        5.66          1.096        0.114
  YS02001887           JUNCTION        0.93          0.740        0.210
  YS02001890           JUNCTION        0.97          0.760        0.000
  YS02001898           JUNCTION        0.76          0.525        0.215
  YS02001901           JUNCTION        0.89          0.671        0.199
  YS02001904           JUNCTION        0.87          0.635        0.215
  YS02001907           JUNCTION        1.49          0.950        0.000
  YS02001910           JUNCTION        1.02          0.776        0.324
  YS02001915           JUNCTION        0.79          0.587        0.413
  YS02001918           JUNCTION        0.53          0.258        0.552
  YS02001619           JUNCTION        5.24          0.610        0.000
  YS02001629           JUNCTION        5.25          0.470        0.000
  YS02001641           JUNCTION        5.62          0.938        0.162
  YS02001644           JUNCTION        5.62          0.920        0.000
  YS02001652           JUNCTION        5.44          1.130        0.000
  YS02001655           JUNCTION        5.25          1.200        0.000
  YS02001920           JUNCTION        0.57          0.334        0.806
  YS02001658           JUNCTION        5.10          1.300        0.000
  YS02001661           JUNCTION        0.22          1.390        0.000
  YS02001622           JUNCTION        5.27          0.620        0.000
  YS02001633           JUNCTION        5.60          0.924        0.136
  YS02001649           JUNCTION        5.64          1.050        0.000
  YS02001757           JUNCTION        5.74          1.210        0.000
  YS02001895           JUNCTION        0.77          0.561        0.189
  YS02001625           JUNCTION        5.52          0.780        0.000
  YS02163301           JUNCTION        5.58          0.902        0.128
  YS02163601           JUNCTION        5.64          0.990        0.090
  YS02164001           JUNCTION        5.61          0.918        0.182
  YS02001647           JUNCTION        5.45          0.804        0.096
  YS02006553           JUNCTION        1.55          0.964        0.226
  YS02006561           JUNCTION        0.67          0.287        0.863
  YS02006556           JUNCTION        1.24          0.880        0.470
  YS02006558           JUNCTION        1.20          0.859        0.541
  YS02001783           JUNCTION        1.37          0.673        0.927
  YS02001784           JUNCTION        1.42          0.838        0.652
  YS02001786           JUNCTION        1.36          1.074        0.356
  YS02001788           JUNCTION        1.35          1.480        0.000
  YS02001790           JUNCTION        2.61          1.157        0.000
  YS02001791           JUNCTION        2.64          0.922        0.998
  YS02001793           JUNCTION        2.71          1.636        0.964
  
  
  *********************
  Node Flooding Summary
  *********************
  
  Flooding refers to all water that overflows a node, whether it ponds or not.
  --------------------------------------------------------------------------
                                                             Total   Maximum
                                 Maximum   Time of Max       Flood    Ponded
                        Hours       Rate    Occurrence      Volume     Depth
  Node                 Flooded       LPS   days hr:min    10^6 ltr    Meters
  --------------------------------------------------------------------------
  YS02001748              0.01    266.46      0  02:41       0.001     0.000
  YS02001770              0.01      4.19      0  02:41       0.000     0.000
  YS02001779              2.38    210.42      0  03:39       0.858     0.000
  YS02001890              0.01      0.14      0  03:00       0.000     0.000
  YS02001907              0.39    275.38      0  02:58       0.212     0.000
  YS02001619              0.01     10.29      0  02:38       0.000     0.000
  YS02001629              0.01     22.05      0  02:39       0.000     0.000
  YS02001644              3.74    918.15      0  03:35       5.588     0.000
  YS02001652              0.01     21.24      0  03:01       0.000     0.000
  YS02001655              0.01     30.27      0  02:37       0.000     0.000
  YS02001658              0.01    347.84      0  02:37       0.001     0.000
  YS02001661              0.01    170.81      0  03:01       0.001     0.000
  YS02001622              0.01     25.11      0  02:38       0.000     0.000
  YS02001649              0.09     50.28      0  03:01       0.005     0.000
  YS02001757              0.01     11.64      0  02:41       0.000     0.000
  YS02001625              0.86    168.29      0  03:01       0.238     0.000
  YS02001788              0.01     71.24      0  02:33       0.000     0.000
  YS02001790              0.01     10.72      0  02:33       0.000     0.000
  JK-storage              2.53    934.81      0  03:20       3.045     0.000
  XR-storage              4.17    585.62      0  03:01       2.875     0.000
  
  
  **********************
  Storage Volume Summary
  **********************
  
  --------------------------------------------------------------------------------------------------
                         Average     Avg  Evap Exfil       Maximum     Max    Time of Max    Maximum
                          Volume    Pcnt  Pcnt  Pcnt        Volume    Pcnt     Occurrence    Outflow
  Storage Unit           1000 m3    Full  Loss  Loss       1000 m3    Full    days hr:min        LPS
  --------------------------------------------------------------------------------------------------
  JK-storage               0.147      50     0     0         0.291     100       0  02:32     600.00
  CC-storage               2.971      19     0     0         3.836      24       0  04:25     400.00
  XR-storage               0.867      94     0     0         0.926     100       0  02:30     380.00
  
  
  ***********************
  Outfall Loading Summary
  ***********************
  
  -----------------------------------------------------------
                         Flow       Avg       Max       Total
                         Freq      Flow      Flow      Volume
  Outfall Node           Pcnt       LPS       LPS    10^6 ltr
  -----------------------------------------------------------
  WSC                   99.99    625.98    906.32      15.605
  3                     92.34    227.59    545.08       4.502
  4                     41.47     74.49    247.91       0.719
  5                      0.00      0.00      0.00       0.000
  -----------------------------------------------------------
  System                58.45    928.06   1591.63      20.826
  
  
  ********************
  Link Flow Summary
  ********************
  
  -----------------------------------------------------------------------------
                                 Maximum  Time of Max   Maximum    Max/    Max/
                                  |Flow|   Occurrence   |Veloc|    Full    Full
  Link                 Type          LPS  days hr:min     m/sec    Flow   Depth
  -----------------------------------------------------------------------------
  WS02003066WSF200     CONDUIT    678.27     0  03:05      2.93    0.11    0.26
  WS02006287WS02006284 CONDUIT    375.44     0  03:02      1.98    0.17    0.29
  WS02006284WS02006280 CONDUIT    375.54     0  03:02      2.22    0.16    0.27
  WS02006280WS02006229 CONDUIT    375.57     0  03:02      3.58    0.08    0.19
  WS02006229WS02006228 CONDUIT    670.24     0  03:01      1.33    2.22    1.00
  WS02006256WS02006235 CONDUIT    166.25     0  00:01      2.58    1.76    1.00
  WS02006253WS02006251 CONDUIT     82.04     0  03:01      0.46    0.25    1.00
  WS02006252WS02006251 CONDUIT    400.81     0  04:40      3.19    1.47    1.00
  WS02006251WS02006249 CONDUIT    481.76     0  03:01      1.26    1.39    0.98
  WS02006249WS02006248 CONDUIT    357.12     0  04:41      1.16    1.96    0.94
  WS02006248WS02006247 CONDUIT    352.94     0  04:41      1.13    0.77    0.97
  WS02006247WS02006245 CONDUIT    348.94     0  04:41      1.10    2.77    1.00
  WS02006245WS02006243 CONDUIT    345.55     0  04:41      1.13    1.02    1.00
  WS02006243WS02006242 CONDUIT    338.00     0  04:41      1.02    0.72    1.00
  WS02006242WS02006240 CONDUIT    326.95     0  04:42      0.96    1.30    1.00
  WS02006240WS02006239 CONDUIT    323.69     0  03:20      0.99    1.02    1.00
  WS02006239WS02006238 CONDUIT    325.60     0  03:20      0.88    1.04    1.00
  WS02006238WS02006235 CONDUIT    325.61     0  03:20      1.25    0.73    1.00
  WS02006235WS02006234 CONDUIT    388.89     0  05:22      1.04    4.10    1.00
  WS02006234WS02006232 CONDUIT    387.81     0  05:41      1.13    0.78    1.00
  WS02006232WS02006231 CONDUIT    387.81     0  05:42      1.06    0.81    1.00
  WS02006231WS02006230 CONDUIT    387.71     0  05:42      1.35    5.88    1.00
  WS02006230WS02006229 CONDUIT    397.93     0  05:42      1.03    8.86    1.00
  WS02006228WS02006109 CONDUIT    670.21     0  03:02      1.33    2.93    1.00
  WS02006116WS02004401 CONDUIT    680.03     0  03:03      0.87    0.94    0.99
  WS02006115WS02006116 CONDUIT    681.97     0  03:03      0.91    0.88    0.92
  WS02006113WS02006111 CONDUIT    705.92     0  03:02      2.59    0.85    0.56
  WS02006112WS02006115 CONDUIT    684.64     0  03:03      0.89    0.40    0.95
  WS02006111WS02006112 CONDUIT    673.03     0  03:03      1.72    0.32    0.74
  WS02006110WS02006113 CONDUIT    672.32     0  03:02      1.53    0.61    0.82
  WS02006109WS02006110 CONDUIT    671.44     0  03:01      1.34    1.29    1.00
  WS02004411WS02004412 CONDUIT    678.32     0  03:05      1.04    0.96    0.77
  WS02004401WS02004402 CONDUIT    680.25     0  03:03      0.87    0.82    1.00
  WS02004413WS02003067 CONDUIT    677.92     0  03:05      1.27    0.29    0.65
  WS02004412WS02004413 CONDUIT    677.93     0  03:05      0.96    0.45    0.85
  WS02004410WS02004411 CONDUIT    678.71     0  03:04      1.04    0.93    0.77
  WS02004409WS02004410 CONDUIT    679.41     0  03:04      1.05    0.88    0.77
  WS02004407WS02004409 CONDUIT    680.31     0  03:04      1.54    0.24    0.55
  WS02004406WS02004407 CONDUIT    680.52     0  03:04      1.22    0.30    0.67
  WS02004405WS02004406 CONDUIT    680.66     0  03:04      0.87    1.34    1.00
  WS02004404WS02004405 CONDUIT    680.48     0  03:03      0.87    6.67    1.00
  WS02004403WS02004404 CONDUIT    680.34     0  03:03      0.87    0.49    1.00
  WS02004402WS02004403 CONDUIT    680.32     0  03:03      0.87    0.98    1.00
  WS02004139WS02001211 CONDUIT    380.59     0  07:42      0.90    0.48    0.59
  WS02004138WS02004139 CONDUIT    392.96     0  00:00      3.64    0.08    0.43
  WS02003067WS02003066 CONDUIT    678.19     0  03:05      1.38    0.22    0.45
  WS02001213WS02003059 CONDUIT    389.30     0  04:40      0.90    0.64    0.74
  WS02001212WS02001213 CONDUIT    388.62     0  04:40      1.31    0.60    0.45
  WS02001211WS02001212 CONDUIT    388.23     0  07:42      0.78    0.30    0.63
  WS02003072WS02003073 CONDUIT    904.37     0  02:45      1.70    1.95    0.48
  WS02003069WS02003072 CONDUIT    904.27     0  02:44      1.60    0.44    0.50
  WS02003060WS02003069 CONDUIT    903.93     0  02:43      1.85    0.35    0.45
  WS02003059WS02003060 CONDUIT    390.25     0  04:40      0.93    0.25    0.64
  HS02004901HS02004770 CONDUIT     17.71     0  03:01      0.07    0.07    0.39
  HS02004876HS02004881 CONDUIT     71.90     0  03:01      0.92    0.76    0.11
  HS02004870HS02004876 CONDUIT     58.03     0  03:01      0.63    0.04    0.13
  HS02004842HS02004848 CONDUIT     11.42     0  03:01      0.05    0.01    0.30
  HS02004837HS02004842 CONDUIT     11.94     0  03:02      0.41    0.01    0.32
  HS02004830HS02004837 CONDUIT     41.69     0  03:01      0.56    0.04    0.11
  HS02004824HS02004830 CONDUIT     41.67     0  03:01      0.58    0.05    0.10
  HS02004817HS02004824 CONDUIT     81.58     0  03:01      0.25    0.04    0.47
  HS02004770HS02004777 CONDUIT     90.21     0  03:01      0.32    0.16    0.41
  HS02004799HS02004480 CONDUIT    226.97     0  03:01      0.78    0.29    0.42
  HS02004792HS02004799 CONDUIT    206.60     0  03:01      0.88    0.13    0.33
  HS02004788HS02004792 CONDUIT    118.94     0  03:01      1.01    0.08    0.17
  HS02004785HS02004788 CONDUIT     89.52     0  03:02      0.66    0.67    0.19
  HS02004777HS02004785 CONDUIT     89.64     0  03:01      0.38    0.11    0.33
  HS02004480HS02004478 CONDUIT    269.12     0  03:01      1.20    1.13    0.32
  HS02004479HS02004480 CONDUIT     44.17     0  03:02      0.23    0.04    0.40
  HS02004862HS02004870 CONDUIT     44.23     0  03:01      0.64    0.05    0.10
  HS02004848HS02004852 CONDUIT     20.44     0  03:01      0.44    0.02    0.07
  HS02004856HS02004862 CONDUIT     30.56     0  03:01      0.47    0.03    0.09
  HS02004852HS02004856 CONDUIT     20.26     0  03:01      0.24    0.02    0.12
  HS02004802HS02004478 CONDUIT    106.59     0  03:02      0.45    0.09    0.35
  HS02004478WS02006287 CONDUIT    375.26     0  03:01      1.68    0.11    0.25
  HS02004817HS02004807 CONDUIT     82.18     0  03:01      0.19    0.05    0.62
  HS02004807HS02004802 CONDUIT    106.49     0  03:01      0.38    0.20    0.40
  YS02001759YS02001757 CONDUIT    649.90     0  02:54      0.83    0.46    1.00
  YS02001762YS02001759 CONDUIT    330.33     0  02:53      0.42    0.38    1.00
  YS02001765YS02001762 CONDUIT    330.35     0  02:53      0.42    0.31    1.00
  YS02001770YS02001767 CONDUIT    329.59     0  02:53      0.42    1.31    1.00
  YS02001774YS02001770 CONDUIT    210.55     0  03:39      0.27    0.13    1.00
  YS02001779YS02001774 CONDUIT    210.46     0  03:39      0.27    0.11    1.00
  YS02001649YS02001757 CONDUIT    924.27     0  02:49      1.18    0.56    1.00
  YS02001767YS02001765 CONDUIT    330.18     0  02:53      0.42    0.42    1.00
  YS02006561YS02001783 CONDUIT    964.00     0  03:01      2.14    0.50    1.00
  YS02001783YS02001784 CONDUIT    964.00     0  03:00      1.92    1.33    1.00
  YS02001784YS02001785 CONDUIT    965.03     0  03:00      1.92    2.25    1.00
  YS02001788YS02001790 CONDUIT    965.21     0  03:01      2.23    0.71    1.00
  YS02001790YS02001791 CONDUIT    965.35     0  03:01      2.64    1.05    1.00
  YS02001791YS02001793 CONDUIT    965.41     0  03:01      5.29    0.41    1.00
  YS02001910YS02001907 CONDUIT    429.30     0  02:54      0.55    0.24    1.00
  YS02001786YS02001788 CONDUIT    965.12     0  03:00      2.14    1.86    1.00
  YS02001915YS02001910 CONDUIT    429.41     0  02:54      0.55    0.21    1.00
  YS02001918YS02001915 CONDUIT    195.40     0  02:54      0.44    0.11    1.00
  YS02001923YS02001920 CONDUIT    192.46     0  02:54      0.68    0.09    1.00
  YS02001926YS02001923 CONDUIT    207.93     0  02:54      0.79    0.30    0.89
  YS02001929YS02001926 CONDUIT    174.26     0  02:54      0.84    0.08    0.78
  YS02001920YS02001918 CONDUIT    195.19     0  02:54      0.67    0.19    1.00
  YS02001629YS02163301 CONDUIT    206.11     0  02:49      0.26    0.25    1.00
  YS02001619YS02001622 CONDUIT    257.32     0  03:01      0.61    0.38    1.00
  YS02001622YS02001625 CONDUIT    257.32     0  03:01      0.33    0.14    1.00
  YS02001625YS02001629 CONDUIT    206.21     0  02:49      0.26    0.10    1.00
  YS02163301YS02001633 CONDUIT    206.33     0  02:49      0.26    0.19    1.00
  YS02163601YS02164001 CONDUIT    434.86     0  02:49      0.55    0.39    1.00
  YS02164001YS02001641 CONDUIT    434.49     0  02:49      0.55    0.59    1.00
  YS02001641YS02001644 CONDUIT    434.04     0  02:49      0.55    1.40    1.00
  YS02001647YS02001649 CONDUIT    658.69     0  02:49      0.84    0.35    1.00
  YS02006553YS02006556 CONDUIT    666.74     0  03:17      0.85    0.57    1.00
  YS02006556YS02006558 CONDUIT    667.13     0  03:16      0.85    0.53    1.00
  YSB6556YSB1171       CONDUIT     24.81     0  03:03      0.09    0.03    0.67
  YS02001907YS02006553 CONDUIT    666.81     0  03:16      0.74    0.78    1.00
  YS02006558YS02006561 CONDUIT    963.99     0  03:00      3.41    2.13    1.00
  YS02001633YS02163601 CONDUIT    434.46     0  02:49      0.55    0.46    1.00
  YS02001644YS02001647 CONDUIT    658.99     0  02:49      0.84    0.39    1.00
  YS02001745YS02001748 CONDUIT    629.22     0  02:40      1.48    0.24    0.93
  YS02001748YS02001751 CONDUIT    309.91     0  02:32      1.05    0.16    1.00
  YS02001751YS02001754 CONDUIT    308.69     0  03:01      0.88    0.15    1.00
  YS02001754YS02001757 CONDUIT    309.00     0  03:01      0.39    0.12    1.00
  YS02001882YS02001884 CONDUIT     26.66     0  02:35      0.09    0.03    1.00
  YS02001884YS02001887 CONDUIT     48.07     0  02:35      0.07    0.06    1.00
  YS02001890YS02001895 CONDUIT    453.61     0  03:01      0.58    0.21    1.00
  YS02001895YS02001898 CONDUIT    453.56     0  03:01      0.58    0.79    1.00
  YS02001898YS02001901 CONDUIT    453.70     0  03:01      0.58    0.29    1.00
  YS02001901YS02001904 CONDUIT    453.56     0  03:01      0.58    0.70    1.00
  YS02001904YS02001907 CONDUIT    453.80     0  03:01      0.58    0.16    1.00
  YS02001887YS02001890 CONDUIT    453.55     0  03:01      0.58    0.78    1.00
  YS02001652YS02001649 CONDUIT    377.71     0  03:01      0.50    0.19    1.00
  YS02001655YS02001652 CONDUIT    377.47     0  03:01      0.93    0.18    1.00
  YS02001658YS02001655 CONDUIT    377.49     0  03:01      1.21    0.16    1.00
  YS02001661YS02001658 CONDUIT    651.87     0  02:37      1.56    0.26    1.00
  YS02001664YS02001661 CONDUIT    687.16     0  02:52      1.51    0.22    0.71
  YSB1154YSB6556       CONDUIT     24.91     0  03:01      0.18    0.04    0.56
  YSB1174YSB1171       CONDUIT     18.78     0  03:01      0.07    0.03    0.68
  YSB1171HS02004479    CONDUIT     42.82     0  03:02      0.54    0.03    0.53
  HS02004881HS02006253 CONDUIT     79.15     0  03:01      1.91    0.02    0.32
  YS02001793JiankangQianchi CONDUIT    972.47     0  02:28     13.98    0.08    1.00
  YS02001757CaochengTiaoxuchi CONDUIT   1752.67     0  02:50      2.32    0.77    1.00
  WSF200WS02003060     CONDUIT    678.34     0  03:06      2.01    0.15    0.35
  1                    CONDUIT    906.32     0  02:46      3.24    0.32    0.39
  2                    CONDUIT    247.91     0  03:01      6.15    0.59    0.56
  3                    CONDUIT    545.08     0  03:00      9.93    0.87    0.73
  4                    CONDUIT      0.00     0  00:00      0.00    0.00    0.00
  CC-Pump-1            PUMP       200.00     0  01:59              1.00
  CC-Pump-2            PUMP       200.00     0  03:00              1.00
  JK-Pump-1            PUMP       300.00     0  02:07              1.00
  JK-Pump-2            PUMP       300.00     0  00:00              1.00
  XR-Pump-1            PUMP        95.00     0  00:00              1.00
  XR-Pump-2            PUMP        95.00     0  00:00              1.00
  XR-Pump-3            PUMP        95.00     0  00:00              1.00
  XR-Pump-4            PUMP        95.00     0  00:00              1.00
  
  
  ***************************
  Flow Classification Summary
  ***************************
  
  -------------------------------------------------------------------------------------
                      Adjusted    ---------- Fraction of Time in Flow Class ---------- 
                       /Actual         Up    Down  Sub   Sup   Up    Down  Norm  Inlet 
  Conduit               Length    Dry  Dry   Dry   Crit  Crit  Crit  Crit  Ltd   Ctrl  
  -------------------------------------------------------------------------------------
  WS02003066WSF200        1.00   0.04  0.02  0.00  0.00  0.94  0.00  0.00  0.60  0.00
  WS02006287WS02006284    1.00   0.04  0.01  0.00  0.58  0.37  0.00  0.00  0.65  0.00
  WS02006284WS02006280    1.00   0.04  0.00  0.00  0.00  0.00  0.00  0.96  0.00  0.00
  WS02006280WS02006229    1.00   0.04  0.00  0.00  0.00  0.00  0.00  0.96  0.00  0.00
  WS02006229WS02006228    1.00   0.00  0.00  0.00  0.99  0.00  0.00  0.01  0.00  0.00
  WS02006256WS02006235    1.00   0.00  0.00  0.00  1.00  0.00  0.00  0.00  0.00  0.00
  WS02006253WS02006251    1.00   0.03  0.01  0.00  0.96  0.00  0.00  0.00  0.00  0.00
  WS02006252WS02006251    1.00   0.07  0.00  0.00  0.00  0.00  0.93  0.00  0.00  0.00
  WS02006251WS02006249    1.00   0.00  0.00  0.00  1.00  0.00  0.00  0.00  0.25  0.00
  WS02006249WS02006248    1.00   0.00  0.02  0.00  0.90  0.00  0.08  0.00  0.00  0.00
  WS02006248WS02006247    1.00   0.02  0.00  0.00  0.98  0.00  0.00  0.00  0.13  0.00
  WS02006247WS02006245    1.00   0.02  0.00  0.00  0.98  0.00  0.00  0.00  0.00  0.00
  WS02006245WS02006243    1.00   0.01  0.00  0.00  0.95  0.00  0.00  0.03  0.01  0.00
  WS02006243WS02006242    1.00   0.01  0.00  0.00  0.99  0.00  0.00  0.00  0.20  0.00
  WS02006242WS02006240    1.00   0.00  0.00  0.00  1.00  0.00  0.00  0.00  0.00  0.00
  WS02006240WS02006239    1.00   0.00  0.00  0.00  0.97  0.00  0.00  0.03  0.01  0.00
  WS02006239WS02006238    1.00   0.00  0.00  0.00  1.00  0.00  0.00  0.00  0.01  0.00
  WS02006238WS02006235    1.00   0.00  0.00  0.00  1.00  0.00  0.00  0.00  0.00  0.00
  WS02006235WS02006234    1.00   0.00  0.00  0.00  0.96  0.00  0.04  0.00  0.00  0.00
  WS02006234WS02006232    1.00   0.00  0.00  0.00  1.00  0.00  0.00  0.00  0.07  0.00
  WS02006232WS02006231    1.00   0.00  0.00  0.00  0.99  0.00  0.00  0.00  0.00  0.00
  WS02006231WS02006230    1.00   0.00  0.00  0.00  0.78  0.00  0.22  0.00  0.00  0.00
  WS02006230WS02006229    1.00   0.00  0.00  0.00  0.99  0.00  0.00  0.01  0.00  0.00
  WS02006228WS02006109    1.00   0.00  0.00  0.00  1.00  0.00  0.00  0.00  0.00  0.00
  WS02006116WS02004401    1.00   0.02  0.00  0.00  0.98  0.00  0.00  0.00  0.00  0.00
  WS02006115WS02006116    1.00   0.02  0.00  0.00  0.97  0.00  0.00  0.01  0.00  0.00
  WS02006113WS02006111    1.00   0.02  0.00  0.00  0.00  0.98  0.00  0.00  0.10  0.00
  WS02006112WS02006115    1.00   0.02  0.00  0.00  0.98  0.00  0.00  0.00  0.00  0.00
  WS02006111WS02006112    1.00   0.02  0.00  0.00  0.98  0.00  0.00  0.00  0.92  0.00
  WS02006110WS02006113    1.00   0.01  0.01  0.00  0.98  0.00  0.00  0.00  0.00  0.00
  WS02006109WS02006110    1.00   0.00  0.01  0.00  0.98  0.00  0.01  0.00  0.00  0.00
  WS02004411WS02004412    1.00   0.04  0.00  0.00  0.96  0.00  0.00  0.00  0.00  0.00
  WS02004401WS02004402    1.00   0.02  0.00  0.00  0.98  0.00  0.00  0.00  0.00  0.00
  WS02004413WS02003067    1.00   0.04  0.01  0.00  0.00  0.00  0.95  0.00  0.00  0.00
  WS02004412WS02004413    1.00   0.04  0.00  0.00  0.96  0.00  0.00  0.00  0.03  0.00
  WS02004410WS02004411    1.00   0.04  0.00  0.00  0.96  0.00  0.00  0.00  0.03  0.00
  WS02004409WS02004410    1.00   0.04  0.00  0.00  0.96  0.00  0.00  0.00  0.03  0.00
  WS02004407WS02004409    1.00   0.04  0.00  0.00  0.96  0.00  0.00  0.00  0.89  0.00
  WS02004406WS02004407    1.00   0.00  0.03  0.00  0.96  0.00  0.00  0.00  0.00  0.00
  WS02004405WS02004406    1.00   0.00  0.00  0.00  1.00  0.00  0.00  0.00  0.01  0.00
  WS02004404WS02004405    1.00   0.00  0.00  0.00  1.00  0.00  0.00  0.00  0.00  0.00
  WS02004403WS02004404    1.00   0.00  0.02  0.00  0.98  0.00  0.00  0.00  0.01  0.00
  WS02004402WS02004403    1.00   0.02  0.00  0.00  0.98  0.00  0.00  0.00  0.00  0.00
  WS02004139WS02001211    1.00   0.00  0.00  0.00  1.00  0.00  0.00  0.00  0.00  0.00
  WS02004138WS02004139    1.00   0.00  0.00  0.00  0.99  0.01  0.00  0.00  1.00  0.00
  WS02003067WS02003066    1.00   0.05  0.01  0.00  0.94  0.00  0.00  0.00  0.00  0.00
  WS02001213WS02003059    1.00   0.00  0.00  0.00  0.99  0.00  0.00  0.00  0.00  0.00
  WS02001212WS02001213    1.00   0.00  0.00  0.00  0.89  0.00  0.11  0.00  0.00  0.00
  WS02001211WS02001212    1.00   0.00  0.00  0.00  1.00  0.00  0.00  0.00  0.00  0.00
  WS02003072WS02003073    1.00   0.00  0.00  0.00  0.00  0.00  0.00  1.00  0.00  0.00
  WS02003069WS02003072    1.00   0.00  0.00  0.00  0.99  0.01  0.00  0.00  0.21  0.00
  WS02003060WS02003069    1.00   0.00  0.00  0.00  0.98  0.02  0.00  0.00  0.14  0.00
  WS02003059WS02003060    1.00   0.00  0.00  0.00  1.00  0.00  0.00  0.00  0.01  0.00
  HS02004901HS02004770    1.00   0.04  0.00  0.00  0.96  0.00  0.00  0.00  0.00  0.00
  HS02004876HS02004881    1.00   0.02  0.00  0.00  0.89  0.09  0.00  0.00  0.00  0.00
  HS02004870HS02004876    1.00   0.00  0.00  0.00  0.99  0.00  0.00  0.00  0.95  0.00
  HS02004842HS02004848    1.00   0.00  0.04  0.00  0.96  0.00  0.00  0.00  0.58  0.00
  HS02004837HS02004842    1.00   0.00  0.00  0.00  0.99  0.01  0.00  0.00  0.11  0.00
  HS02004830HS02004837    1.00   0.00  0.00  0.00  1.00  0.00  0.00  0.00  0.99  0.00
  HS02004824HS02004830    1.00   0.00  0.00  0.00  1.00  0.00  0.00  0.00  0.00  0.00
  HS02004817HS02004824    1.00   0.00  0.00  0.00  1.00  0.00  0.00  0.00  1.00  0.00
  HS02004770HS02004777    1.00   0.00  0.04  0.00  0.96  0.00  0.00  0.00  0.03  0.00
  HS02004799HS02004480    1.00   0.00  0.02  0.00  0.95  0.00  0.02  0.00  0.00  0.00
  HS02004792HS02004799    1.00   0.00  0.00  0.00  0.99  0.01  0.00  0.00  0.98  0.00
  HS02004788HS02004792    1.00   0.00  0.00  0.00  0.99  0.01  0.00  0.00  0.98  0.00
  HS02004785HS02004788    1.00   0.00  0.00  0.00  1.00  0.00  0.00  0.00  0.00  0.00
  HS02004777HS02004785    1.00   0.00  0.00  0.00  1.00  0.00  0.00  0.00  0.14  0.00
  HS02004480HS02004478    1.00   0.04  0.00  0.00  0.66  0.00  0.00  0.30  0.00  0.00
  HS02004479HS02004480    1.00   0.03  0.00  0.00  0.97  0.00  0.00  0.00  0.12  0.00
  HS02004862HS02004870    1.00   0.00  0.00  0.00  1.00  0.00  0.00  0.00  0.05  0.00
  HS02004848HS02004852    1.00   0.04  0.00  0.00  0.96  0.00  0.00  0.00  0.61  0.00
  HS02004856HS02004862    1.00   0.00  0.05  0.00  0.95  0.00  0.00  0.00  0.80  0.00
  HS02004852HS02004856    1.00   0.04  0.00  0.00  0.96  0.00  0.00  0.00  0.85  0.00
  HS02004802HS02004478    1.00   0.04  0.00  0.00  0.96  0.00  0.00  0.00  0.03  0.00
  HS02004478WS02006287    1.00   0.05  0.00  0.00  0.72  0.23  0.00  0.00  0.66  0.00
  HS02004817HS02004807    1.00   0.00  0.04  0.00  0.96  0.00  0.00  0.00  0.01  0.00
  HS02004807HS02004802    1.00   0.04  0.00  0.00  0.96  0.00  0.00  0.00  0.00  0.00
  YS02001759YS02001757    1.00   0.00  0.00  0.00  1.00  0.00  0.00  0.00  0.16  0.00
  YS02001762YS02001759    1.00   0.00  0.00  0.00  1.00  0.00  0.00  0.00  0.04  0.00
  YS02001765YS02001762    1.00   0.00  0.00  0.00  1.00  0.00  0.00  0.00  0.16  0.00
  YS02001770YS02001767    1.00   0.00  0.00  0.00  1.00  0.00  0.00  0.00  0.00  0.00
  YS02001774YS02001770    1.00   0.00  0.04  0.00  0.96  0.00  0.00  0.00  0.04  0.00
  YS02001779YS02001774    1.00   0.00  0.00  0.00  1.00  0.00  0.00  0.00  0.21  0.00
  YS02001649YS02001757    1.00   0.00  0.00  0.00  1.00  0.00  0.00  0.00  0.17  0.00
  YS02001767YS02001765    1.00   0.00  0.00  0.00  1.00  0.00  0.00  0.00  0.00  0.00
  YS02006561YS02001783    1.00   0.05  0.00  0.00  0.41  0.53  0.00  0.00  0.56  0.00
  YS02001783YS02001784    1.00   0.00  0.05  0.00  0.95  0.00  0.00  0.00  0.01  0.00
  YS02001784YS02001785    1.00   0.00  0.00  0.00  1.00  0.00  0.00  0.00  0.20  0.00
  YS02001788YS02001790    1.00   0.00  0.00  0.00  0.48  0.52  0.00  0.00  0.49  0.00
  YS02001790YS02001791    1.00   0.00  0.00  0.00  0.44  0.56  0.00  0.00  0.42  0.00
  YS02001791YS02001793    1.00   0.00  0.00  0.00  0.44  0.56  0.00  0.00  0.01  0.00
  YS02001910YS02001907    1.00   0.00  0.00  0.00  0.98  0.00  0.00  0.02  0.13  0.00
  YS02001786YS02001788    1.00   0.00  0.00  0.00  0.48  0.52  0.00  0.00  0.00  0.00
  YS02001915YS02001910    1.00   0.00  0.00  0.00  0.99  0.01  0.00  0.00  0.18  0.00
  YS02001918YS02001915    1.00   0.00  0.01  0.00  0.98  0.01  0.00  0.00  0.58  0.00
  YS02001923YS02001920    1.00   0.00  0.00  0.00  1.00  0.00  0.00  0.00  0.85  0.00
  YS02001926YS02001923    1.00   0.00  0.03  0.00  0.14  0.00  0.83  0.00  0.00  0.00
  YS02001929YS02001926    1.00   0.00  0.04  0.00  0.96  0.00  0.00  0.00  0.78  0.00
  YS02001920YS02001918    1.00   0.00  0.01  0.00  0.99  0.00  0.00  0.00  0.00  0.00
  YS02001629YS02163301    1.00   0.05  0.00  0.00  0.95  0.00  0.00  0.00  0.00  0.00
  YS02001619YS02001622    1.00   0.04  0.00  0.00  0.96  0.00  0.00  0.00  0.00  0.00
  YS02001622YS02001625    1.00   0.04  0.00  0.00  0.96  0.00  0.00  0.00  0.07  0.00
  YS02001625YS02001629    1.00   0.04  0.01  0.00  0.93  0.00  0.01  0.00  0.00  0.00
  YS02163301YS02001633    1.00   0.00  0.05  0.00  0.95  0.00  0.00  0.00  0.00  0.00
  YS02163601YS02164001    1.00   0.00  0.03  0.00  0.97  0.00  0.00  0.00  0.00  0.00
  YS02164001YS02001641    1.00   0.01  0.02  0.00  0.97  0.00  0.00  0.00  0.06  0.00
  YS02001641YS02001644    1.00   0.00  0.01  0.00  0.99  0.00  0.00  0.00  0.00  0.00
  YS02001647YS02001649    1.00   0.00  0.05  0.00  0.95  0.00  0.00  0.00  0.01  0.00
  YS02006553YS02006556    1.00   0.01  0.00  0.00  0.99  0.00  0.00  0.00  0.03  0.00
  YS02006556YS02006558    1.00   0.00  0.00  0.00  1.00  0.00  0.00  0.00  0.00  0.00
  YSB6556YSB1171          1.00   0.03  0.01  0.00  0.96  0.00  0.00  0.00  0.00  0.00
  YS02001907YS02006553    1.00   0.00  0.02  0.00  0.98  0.00  0.00  0.00  0.00  0.00
  YS02006558YS02006561    1.00   0.05  0.00  0.00  0.19  0.76  0.00  0.00  0.49  0.00
  YS02001633YS02163601    1.00   0.00  0.01  0.00  0.99  0.00  0.00  0.00  0.16  0.00
  YS02001644YS02001647    1.00   0.00  0.05  0.00  0.95  0.00  0.00  0.00  0.00  0.00
  YS02001745YS02001748    1.00   0.00  0.00  0.00  0.88  0.01  0.00  0.10  0.04  0.00
  YS02001748YS02001751    1.00   0.00  0.00  0.00  0.97  0.03  0.00  0.00  0.15  0.00
  YS02001751YS02001754    1.00   0.00  0.00  0.00  0.94  0.00  0.00  0.06  0.02  0.00
  YS02001754YS02001757    1.00   0.00  0.00  0.00  0.99  0.01  0.00  0.00  0.20  0.00
  YS02001882YS02001884    1.00   0.05  0.00  0.00  0.95  0.00  0.00  0.00  0.00  0.00
  YS02001884YS02001887    1.00   0.03  0.01  0.00  0.96  0.00  0.00  0.00  0.00  0.00
  YS02001890YS02001895    1.00   0.00  0.05  0.00  0.95  0.00  0.00  0.00  0.00  0.00
  YS02001895YS02001898    1.00   0.05  0.00  0.00  0.94  0.00  0.01  0.00  0.00  0.00
  YS02001898YS02001901    1.00   0.05  0.00  0.00  0.95  0.00  0.00  0.00  0.02  0.00
  YS02001901YS02001904    1.00   0.05  0.00  0.00  0.95  0.00  0.00  0.00  0.00  0.00
  YS02001904YS02001907    1.00   0.00  0.05  0.00  0.95  0.00  0.00  0.00  0.00  0.00
  YS02001887YS02001890    1.00   0.00  0.00  0.00  0.98  0.00  0.02  0.00  0.00  0.00
  YS02001652YS02001649    1.00   0.00  0.00  0.00  1.00  0.00  0.00  0.00  0.18  0.00
  YS02001655YS02001652    1.00   0.00  0.00  0.00  0.94  0.00  0.00  0.06  0.02  0.00
  YS02001658YS02001655    1.00   0.00  0.04  0.00  0.93  0.02  0.00  0.00  0.11  0.00
  YS02001661YS02001658    1.00   0.04  0.00  0.00  0.88  0.07  0.00  0.00  0.05  0.00
  YS02001664YS02001661    1.00   0.04  0.00  0.00  0.88  0.08  0.00  0.00  0.22  0.00
  YSB1154YSB6556          1.00   0.04  0.00  0.00  0.96  0.00  0.00  0.00  0.02  0.00
  YSB1174YSB1171          1.00   0.03  0.01  0.00  0.97  0.00  0.00  0.00  0.00  0.00
  YSB1171HS02004479       1.00   0.03  0.00  0.00  0.97  0.00  0.00  0.00  0.11  0.00
  HS02004881HS02006253    1.00   0.03  0.00  0.00  0.81  0.02  0.00  0.13  0.66  0.00
  YS02001793JiankangQianchi    1.00   0.00  0.00  0.00  0.57  0.42  0.00  0.00  0.14  0.00
  YS02001757CaochengTiaoxuchi    1.00   0.00  0.07  0.00  0.93  0.00  0.00  0.00  0.00  0.00
  WSF200WS02003060        1.00   0.00  0.04  0.00  0.72  0.24  0.00  0.00  0.31  0.00
  1                       1.00   0.00  0.00  0.00  0.00  1.00  0.00  0.00  0.39  0.00
  2                       1.00   0.58  0.00  0.00  0.00  0.42  0.00  0.00  0.07  0.00
  3                       1.00   0.08  0.00  0.00  0.00  0.92  0.00  0.00  0.24  0.00
  4                       1.00   1.00  0.00  0.00  0.00  0.00  0.00  0.00  0.00  0.00
  
  
  *************************
  Conduit Surcharge Summary
  *************************
  
  ----------------------------------------------------------------------------
                                                           Hours        Hours 
                         --------- Hours Full --------   Above Full   Capacity
  Conduit                Both Ends  Upstream  Dnstream   Normal Flow   Limited
  ----------------------------------------------------------------------------
  WS02006229WS02006228        2.75      3.04      2.75      5.24         2.75
  WS02006256WS02006235        6.10      6.10      7.20      3.07         0.01
  WS02006253WS02006251        0.08      0.08      0.21      0.01         0.01
  WS02006252WS02006251        1.64      1.64      2.51      2.28         0.01
  WS02006251WS02006249        0.01      0.12      0.01      1.68         0.01
  WS02006249WS02006248        0.01      0.01      0.01      4.96         0.01
  WS02006248WS02006247        0.01      0.01      0.16      0.01         0.01
  WS02006247WS02006245        0.15      0.21      0.15      5.25         0.15
  WS02006245WS02006243        0.19      0.19      0.31      0.04         0.01
  WS02006243WS02006242        0.35      0.35      1.87      0.01         0.01
  WS02006242WS02006240        0.71      0.71      2.36      2.30         0.01
  WS02006240WS02006239        0.73      0.73      0.80      0.01         0.01
  WS02006239WS02006238        2.27      2.27      2.43      0.16         0.17
  WS02006238WS02006235        2.29      2.29      2.74      0.01         0.01
  WS02006235WS02006234        0.83      0.83      1.91      6.12         0.01
  WS02006234WS02006232        0.98      0.98      2.91      0.01         0.01
  WS02006232WS02006231        0.63      0.63      2.91      0.01         0.01
  WS02006231WS02006230        0.54      0.54      0.66      6.12         0.01
  WS02006230WS02006229        4.15      5.06      4.15      6.23         4.15
  WS02006228WS02006109        2.91      3.54      2.91      5.60         2.91
  WS02006112WS02006115        0.01      0.01      1.28      0.01         0.01
  WS02006111WS02006112        0.01      0.01      5.24      0.01         0.01
  WS02006110WS02006113        0.01      0.01      3.27      0.01         0.01
  WS02006109WS02006110        0.98      0.98      3.53      0.99         0.01
  WS02004401WS02004402        0.01      0.01      0.06      0.01         0.01
  WS02004406WS02004407        0.01      0.01      0.39      0.01         0.01
  WS02004405WS02004406        0.39      0.52      0.39      1.11         0.39
  WS02004404WS02004405        0.52      0.57      0.52      6.00         0.52
  WS02004403WS02004404        0.09      0.09      0.57      0.01         0.01
  WS02004402WS02004403        0.06      0.06      0.09      0.01         0.01
  WS02003072WS02003073        0.01      0.01      0.01      5.59         0.01
  HS02004480HS02004478        0.01      0.01      0.01      0.25         0.01
  YS02001759YS02001757        5.66      5.66      5.74      0.01         0.01
  YS02001762YS02001759        5.64      5.64      5.66      0.01         0.01
  YS02001765YS02001762        5.61      5.61      5.64      0.01         0.01
  YS02001770YS02001767        5.58      5.58      5.58      0.30         0.80
  YS02001774YS02001770        5.57      5.57      5.63      0.01         0.01
  YS02001779YS02001774        5.41      5.41      5.63      0.01         0.01
  YS02001649YS02001757        5.64      5.64      5.74      0.01         0.01
  YS02001767YS02001765        5.58      5.58      5.61      0.01         0.01
  YS02006561YS02001783        0.67      0.67      1.37      0.01         0.01
  YS02001783YS02001784        1.37      1.37      1.42      1.06         1.02
  YS02001784YS02001785        1.36      1.42      1.36      2.08         1.36
  YS02001788YS02001790        1.35      1.35      2.61      0.01         0.01
  YS02001790YS02001791        2.61      2.61      2.64      0.49         0.49
  YS02001791YS02001793        2.64      2.64      2.74      0.01         0.01
  YS02001910YS02001907        1.02      1.02      1.49      0.01         0.01
  YS02001786YS02001788        1.35      1.36      1.35      1.66         1.35
  YS02001915YS02001910        0.79      0.79      1.02      0.01         0.01
  YS02001918YS02001915        0.53      0.53      0.79      0.01         0.01
  YS02001923YS02001920        0.31      0.31      0.57      0.01         0.01
  YS02001920YS02001918        0.53      0.53      0.57      0.01         0.01
  YS02001629YS02163301        5.57      5.57      5.58      0.01         0.01
  YS02001619YS02001622        5.24      5.24      5.27      0.01         0.01
  YS02001622YS02001625        5.27      5.27      5.52      0.01         0.01
  YS02001625YS02001629        5.25      5.25      5.52      0.01         0.01
  YS02163301YS02001633        5.58      5.58      5.61      0.01         0.01
  YS02163601YS02164001        5.61      5.61      5.64      0.01         0.01
  YS02164001YS02001641        5.61      5.61      5.62      0.01         0.02
  YS02001641YS02001644        5.62      5.62      5.62      1.21         1.45
  YS02001647YS02001649        5.45      5.45      5.64      0.01         0.01
  YS02006553YS02006556        1.24      1.24      1.55      0.01         0.01
  YS02006556YS02006558        1.38      1.38      1.62      0.01         0.01
  YS02001907YS02006553        2.09      2.09      2.31      0.01         0.01
  YS02006558YS02006561        0.90      1.20      0.90      1.93         0.90
  YS02001633YS02163601        5.60      5.60      5.64      0.01         0.01
  YS02001644YS02001647        5.45      5.45      5.62      0.01         0.01
  YS02001745YS02001748        0.01      0.01      5.07      0.01         0.01
  YS02001748YS02001751        5.12      5.12      5.23      0.01         0.01
  YS02001751YS02001754        5.23      5.23      5.42      0.01         0.01
  YS02001754YS02001757        5.45      5.45      5.74      0.01         0.01
  YS02001882YS02001884        0.81      0.81      0.84      0.01         0.01
  YS02001884YS02001887        0.90      0.90      0.93      0.01         0.01
  YS02001890YS02001895        0.77      0.77      1.04      0.01         0.01
  YS02001895YS02001898        0.76      0.76      0.77      0.01         0.01
  YS02001898YS02001901        0.78      0.78      0.89      0.01         0.01
  YS02001901YS02001904        0.87      0.87      0.89      0.01         0.01
  YS02001904YS02001907        0.87      0.87      1.57      0.01         0.01
  YS02001887YS02001890        0.97      0.97      1.00      0.01         0.01
  YS02001652YS02001649        5.47      5.47      5.64      0.01         0.01
  YS02001655YS02001652        5.25      5.25      5.44      0.01         0.01
  YS02001658YS02001655        5.10      5.10      5.25      0.01         0.01
  YS02001661YS02001658        0.20      0.20      5.10      0.01         0.01
  YS02001664YS02001661        0.01      0.01      1.12      0.01         0.01
  YS02001793JiankangQianchi        2.71      2.71      3.57      0.01         0.01
  YS02001757CaochengTiaoxuchi        4.92      4.92      5.74      0.01         0.01
  
  
  ***************
  Pumping Summary
  ***************
  
  ---------------------------------------------------------------------------------------------------------
                                                  Min       Avg       Max     Total     Power    % Time Off
                        Percent   Number of      Flow      Flow      Flow    Volume     Usage    Pump Curve
  Pump                 Utilized   Start-Ups       LPS       LPS       LPS  10^6 ltr     Kw-hr    Low   High
  ---------------------------------------------------------------------------------------------------------
  CC-Pump-1               58.79           5      0.00    160.93    200.00     2.681      4.17    0.0    9.0
  CC-Pump-2               65.17           6      0.00    139.29    200.00     2.593      3.29    0.0    8.6
  JK-Pump-1               76.58           8      0.00    171.26    300.00     3.057     34.08    0.0    0.0
  JK-Pump-2               85.10           6      0.00    175.54    300.00     3.510     39.43    0.0    0.0
  XR-Pump-1               82.97           9      0.00     73.74     95.00     1.653     11.81    0.0    0.0
  XR-Pump-2               85.10          11      0.00     64.11     95.00     1.596     12.11    0.0    0.0
  XR-Pump-3               82.96           9      0.00     61.36     95.00     1.425     10.97    0.0    0.0
  XR-Pump-4               89.35           6      0.00     76.27     95.00     1.938     15.43    0.0    0.0
  

  Analysis begun on:  Wed Dec 22 17:02:02 2021
  Analysis ended on:  Wed Dec 22 17:02:06 2021
  Total elapsed time: 00:00:04