
  EPA STORM WATER MANAGEMENT MODEL - VERSION 5.1 (Build 5.3.0.dev0)
  --------------------------------------------------------------

  WARNING 04: minimum elevation drop used for Conduit WS02004404WS02004405
  WARNING 03: negative offset ignored for Link YS02001904YS02001907
  
  *********************************************************
  NOTE: The summary statistics displayed in this report are
  based on results found at every computational time step,  
  not just on results from each reporting time step.
  *********************************************************
  
  ****************
  Analysis Options
  ****************
  Flow Units ............... LPS
  Process Models:
    Rainfall/Runoff ........ YES
    RDII ................... NO
    Snowmelt ............... NO
    Groundwater ............ NO
    Flow Routing ........... YES
    Ponding Allowed ........ NO
    Water Quality .......... NO
  Infiltration Method ...... HORTON
  Flow Routing Method ...... DYNWAVE
  Surcharge Method ......... EXTRAN
  Starting Date ............ 08/28/2015 08:00:00
  Ending Date .............. 08/28/2015 15:50:00
  Antecedent Dry Days ...... 8.0
  Report Time Step ......... 00:01:00
  Wet Time Step ............ 00:01:00
  Dry Time Step ............ 00:01:00
  Routing Time Step ........ 5.00 sec
  Variable Time Step ....... YES
  Maximum Trials ........... 8
  Number of Threads ........ 4
  Head Tolerance ........... 0.001500 m
  
  
  **************************        Volume         Depth
  Runoff Quantity Continuity     hectare-m            mm
  **************************     ---------       -------
  Total Precipitation ......         5.556        12.164
  Evaporation Loss .........         0.000         0.000
  Infiltration Loss ........         1.427         3.124
  Surface Runoff ...........         3.072         6.726
  Final Storage ............         1.058         2.316
  Continuity Error (%) .....        -0.016
  
  
  **************************        Volume        Volume
  Flow Routing Continuity        hectare-m      10^6 ltr
  **************************     ---------     ---------
  Dry Weather Inflow .......         0.616         6.165
  Wet Weather Inflow .......         3.071        30.708
  Groundwater Inflow .......         0.000         0.000
  RDII Inflow ..............         0.000         0.000
  External Inflow ..........         0.102         1.024
  External Outflow .........         2.232        22.325
  Flooding Loss ............         1.085        10.848
  Evaporation Loss .........         0.000         0.000
  Exfiltration Loss ........         0.000         0.000
  Initial Stored Volume ....         0.076         0.761
  Final Stored Volume ......         0.648         6.478
  Continuity Error (%) .....        -2.571
  
  
  *************************
  Highest Continuity Errors
  *************************
  Node HS02004842 (16.24%)
  Node YS02001884 (11.32%)
  Node JK-storage (-11.24%)
  Node YS02001774 (4.35%)
  Node YSB1171 (3.12%)
  
  
  ***************************
  Time-Step Critical Elements
  ***************************
  Link 3 (51.19%)
  Link WS02006252WS02006251 (39.06%)
  Link WS02006238WS02006235 (2.84%)
  Link WS02006280WS02006229 (1.20%)
  
  
  ********************************
  Highest Flow Instability Indexes
  ********************************
  Link YS02163601YS02164001 (37)
  Link YS02001629YS02163301 (37)
  Link YS02001619YS02001622 (37)
  Link YS02163301YS02001633 (37)
  Link YS02164001YS02001641 (34)
  
  
  *************************
  Routing Time Step Summary
  *************************
  Minimum Time Step           :     0.50 sec
  Average Time Step           :     0.76 sec
  Maximum Time Step           :     5.00 sec
  Percent in Steady State     :    -0.00
  Average Iterations per Step :     4.48
  Percent Not Converging      :    20.81
  
  
  ***************************
  Subcatchment Runoff Summary
  ***************************
  
  ------------------------------------------------------------------------------------------------------------------------------
                            Total      Total      Total      Total     Imperv       Perv      Total       Total     Peak  Runoff
                           Precip      Runon       Evap      Infil     Runoff     Runoff     Runoff      Runoff   Runoff   Coeff
  Subcatchment                 mm         mm         mm         mm         mm         mm         mm    10^6 ltr      LPS
  ------------------------------------------------------------------------------------------------------------------------------
  sub0                      12.16       0.00       0.00       0.85      10.05       0.00      10.05        0.01     1.91   0.826
  sub1                      12.16       0.00       0.00       1.34       9.56       0.00       9.56        0.06    14.15   0.786
  sub2                      12.16       0.00       0.00       4.50       6.75       0.00       6.75        0.06    13.75   0.555
  sub3                      12.16       0.00       0.00       4.50       6.71       0.00       6.71        0.15    32.07   0.552
  sub4                      12.16       0.00       0.00       1.34       9.40       0.00       9.40        0.20    40.20   0.773
  sub5                      12.16       0.00       0.00       0.85       9.99       0.00       9.99        0.11    25.19   0.822
  sub7                      12.16       0.00       0.00       1.09       9.81       0.00       9.81        0.03     7.55   0.807
  sub8                      12.16       0.00       0.00       1.09       9.80       0.00       9.80        0.06    14.17   0.806
  sub9                      12.16       0.00       0.00       1.09       9.80       0.00       9.80        0.05    10.64   0.806
  sub10                     12.16       0.00       0.00       0.97       9.89       0.00       9.89        0.11    24.40   0.813
  sub11                     12.16       0.00       0.00       0.97       9.91       0.00       9.91        0.12    26.15   0.815
  sub12                     12.16       0.00       0.00       1.58       9.39       0.00       9.39        0.08    19.06   0.772
  sub14                     12.16       0.00       0.00       1.09       9.80       0.00       9.80        0.09    21.02   0.805
  sub15                     12.16       0.00       0.00       3.65       7.53       0.00       7.53        0.13    29.11   0.619
  sub16                     12.16       0.00       0.00       4.01       7.23       0.00       7.23        0.08    17.47   0.594
  sub17                     12.16       0.00       0.00       3.89       7.34       0.00       7.34        0.06    14.47   0.603
  sub22                     12.16       0.00       0.00       5.23       6.14       0.00       6.14        0.39    88.27   0.505
  sub23                     12.16       0.00       0.00       4.50       6.79       0.00       6.79        0.32    73.89   0.558
  sub60                     12.16       0.00       0.00       1.46       7.71       0.00       7.71        2.34   297.17   0.634
  sub61                     12.16       0.00       0.00       2.07       7.87       0.00       7.87        2.43   359.80   0.647
  sub62                     12.16       0.00       0.00       0.97       8.55       0.00       8.55        2.63   372.87   0.703
  sub63                     12.16       0.00       0.00       3.53       6.89       0.00       6.89        2.09   327.80   0.567
  sub64                     12.16       0.00       0.00       1.82       7.40       0.00       7.40        2.25   282.66   0.608
  sub65                     12.16       0.00       0.00       1.58       7.52       0.00       7.52        2.31   287.20   0.618
  sub66                     12.16       0.00       0.00       3.53       6.36       0.00       6.36        1.95   257.27   0.523
  sub67                     12.16       0.00       0.00       0.97       9.05       0.00       9.05        2.79   452.90   0.744
  sub68                     12.16       0.00       0.00       1.70       8.28       0.00       8.28        2.55   391.99   0.681
  sub69                     12.16       0.00       0.00       1.82       8.61       0.00       8.61        2.01   355.79   0.708
  sub70                     12.16       8.79       0.00       7.03      11.43       0.10      11.53        2.64   335.00   0.550
  sub71                     12.16       0.00       0.00       0.97       8.31       0.00       8.31        1.96   263.63   0.683
  sub72                     12.16       0.00       0.00       0.85       6.56       0.00       6.56        1.34   129.40   0.540
  sub73                     12.16      11.23       0.00       7.88      12.47       0.08      12.54        2.95   300.52   0.536
  sub74                     12.16       0.00       0.00       9.12       2.57       0.00       2.57        1.03   189.59   0.211
  
  
  ******************
  Node Depth Summary
  ******************
  
  ---------------------------------------------------------------------------------
                                 Average  Maximum  Maximum  Time of Max    Reported
                                   Depth    Depth      HGL   Occurrence   Max Depth
  Node                 Type       Meters   Meters   Meters  days hr:min      Meters
  ---------------------------------------------------------------------------------
  WS02001211           JUNCTION     0.67     0.79     5.63     0  02:40        0.79
  WS02001212           JUNCTION     0.40     0.51     5.58     0  02:41        0.51
  WS02001213           JUNCTION     0.64     0.77     5.53     0  02:41        0.77
  WS02003069           JUNCTION     0.47     0.61     5.19     0  02:42        0.61
  WS02003072           JUNCTION     0.53     0.66     5.04     0  02:43        0.66
  WS02003073           JUNCTION     0.32     0.41     4.48     0  02:43        0.41
  WS02003060           JUNCTION     0.42     0.54     5.47     0  02:42        0.54
  WS02003066           JUNCTION     0.25     0.33     5.88     0  03:06        0.33
  WS02003059           JUNCTION     0.70     0.82     5.51     0  02:41        0.82
  WS02003067           JUNCTION     0.61     0.75     6.07     0  03:06        0.75
  WS02004401           JUNCTION     0.73     0.98     6.98     0  03:02        0.98
  WS02004402           JUNCTION     0.76     1.00     6.96     0  03:02        1.00
  WS02004403           JUNCTION     0.78     1.00     6.93     0  03:02        1.00
  WS02004404           JUNCTION     0.85     1.06     6.91     0  03:02        1.06
  WS02004406           JUNCTION     0.85     1.03     6.86     0  03:02        1.03
  WS02004409           JUNCTION     0.55     0.76     6.53     0  03:04        0.76
  WS02004410           JUNCTION     0.56     0.76     6.48     0  03:05        0.76
  WS02004411           JUNCTION     0.57     0.77     6.45     0  03:05        0.77
  WS02004412           JUNCTION     0.59     0.77     6.41     0  03:05        0.77
  WS02004413           JUNCTION     0.74     0.92     6.39     0  03:05        0.92
  WS02004405           JUNCTION     0.84     1.05     6.90     0  03:02        1.05
  WS02006109           JUNCTION     0.82     1.11     7.73     0  03:01        1.10
  WS02006110           JUNCTION     0.80     1.02     7.61     0  02:57        1.01
  WS02006111           JUNCTION     0.24     0.36     7.07     0  03:02        0.36
  WS02006112           JUNCTION     0.91     1.20     7.09     0  02:59        1.20
  WS02006113           JUNCTION     0.38     0.51     7.40     0  03:03        0.51
  WS02006115           JUNCTION     0.62     0.90     7.04     0  03:02        0.90
  WS02006116           JUNCTION     0.70     0.97     7.01     0  03:03        0.97
  WS02006230           JUNCTION     0.82     1.17     7.92     0  03:01        1.17
  WS02006231           JUNCTION     0.55     0.83     7.95     0  03:02        0.83
  WS02006232           JUNCTION     0.69     0.95     7.99     0  03:02        0.95
  WS02006234           JUNCTION     0.62     0.86     8.02     0  03:00        0.86
  WS02006235           JUNCTION     0.65     0.89     8.05     0  02:58        0.88
  WS02006238           JUNCTION     0.68     0.91     8.06     0  03:02        0.90
  WS02006240           JUNCTION     0.58     0.80     8.09     0  02:30        0.80
  WS02006242           JUNCTION     0.64     0.86     8.13     0  02:30        0.86
  WS02006243           JUNCTION     0.52     0.74     8.16     0  02:30        0.74
  WS02006245           JUNCTION     0.49     0.71     8.19     0  02:30        0.71
  WS02006247           JUNCTION     0.51     0.71     8.21     0  02:30        0.71
  WS02006248           JUNCTION     0.45     0.64     8.23     0  02:30        0.64
  WS02006249           JUNCTION     0.47     0.65     8.25     0  02:35        0.65
  WS02006239           JUNCTION     0.64     0.86     8.07     0  03:00        0.86
  WS02006251           JUNCTION     0.47     0.70     8.37     0  02:45        0.70
  WS02006252           JUNCTION     0.41     0.59     8.84     0  02:43        0.59
  WS02006253           JUNCTION     0.50     0.72     8.37     0  02:45        0.72
  WS02006256           JUNCTION     1.09     2.35     9.28     0  00:00        1.22
  WS02004138           JUNCTION     0.15     0.19     7.44     0  06:02        0.19
  WS02004407           JUNCTION     0.25     0.33     6.64     0  03:03        0.33
  WS02006228           JUNCTION     0.83     1.18     7.83     0  03:01        1.17
  WS02006229           JUNCTION     0.81     1.19     7.88     0  03:02        1.19
  WS02006280           JUNCTION     0.07     0.19     8.46     0  03:02        0.19
  WS02006284           JUNCTION     0.38     0.55     8.95     0  03:02        0.55
  WS02006287           JUNCTION     0.11     0.28     9.24     0  03:01        0.28
  WSF200               JUNCTION     0.24     0.35     5.58     0  03:06        0.35
  HS02004901           JUNCTION     0.13     0.28    10.10     0  03:01        0.28
  HS02004881           JUNCTION     0.01     0.04     9.07     0  03:01        0.04
  HS02004876           JUNCTION     0.05     0.12     9.15     0  03:01        0.12
  HS02004870           JUNCTION     0.02     0.06     9.35     0  03:01        0.06
  HS02004862           JUNCTION     0.02     0.07     9.46     0  03:01        0.07
  HS02004856           JUNCTION     0.08     0.13     9.55     0  03:01        0.13
  HS02004852           JUNCTION     0.01     0.05     9.56     0  03:01        0.05
  HS02004848           JUNCTION     0.01     0.05     9.65     0  03:01        0.05
  HS02004842           JUNCTION     0.34     0.38     9.65     0  03:01        0.38
  HS02004837           JUNCTION     0.03     0.07     9.65     0  03:01        0.07
  HS02004830           JUNCTION     0.04     0.08     9.55     0  03:01        0.08
  HS02004824           JUNCTION     0.03     0.06     9.46     0  03:01        0.06
  HS02004817           JUNCTION     0.45     0.60     9.44     0  03:01        0.60
  HS02004807           JUNCTION     0.13     0.27     9.44     0  03:01        0.27
  HS02004802           JUNCTION     0.17     0.30     9.43     0  03:01        0.30
  HS02004799           JUNCTION     0.13     0.33     9.54     0  03:01        0.33
  HS02004792           JUNCTION     0.04     0.14     9.66     0  03:01        0.14
  HS02004788           JUNCTION     0.03     0.10    10.00     0  03:01        0.10
  HS02004785           JUNCTION     0.05     0.17    10.07     0  03:01        0.17
  HS02004777           JUNCTION     0.16     0.30    10.10     0  03:01        0.30
  HS02004770           JUNCTION     0.13     0.27    10.10     0  03:01        0.27
  HS02004480           JUNCTION     0.09     0.26     9.50     0  03:01        0.26
  HS02004479           JUNCTION     0.13     0.30     9.50     0  03:01        0.30
  HS02004478           JUNCTION     0.07     0.18     9.41     0  03:01        0.18
  YS02001745           JUNCTION     0.68     0.87     8.39     0  03:27        0.87
  YS02001748           JUNCTION     1.07     2.13     9.20     0  02:44        1.32
  YS02001751           JUNCTION     1.25     2.05     8.93     0  02:45        1.53
  YS02001754           JUNCTION     1.51     2.00     8.61     0  02:45        1.80
  YS02001762           JUNCTION     1.71     2.03     8.43     0  03:17        2.02
  YS02001765           JUNCTION     1.66     1.98     8.43     0  03:24        1.96
  YS02001767           JUNCTION     1.63     1.93     8.42     0  03:15        1.92
  YS02001770           JUNCTION     1.62     1.91     8.41     0  02:59        1.90
  YS02001774           JUNCTION     1.69     1.97     8.40     0  03:12        1.96
  YS02001779           JUNCTION     1.44     1.68     8.37     0  02:45        1.68
  YS02001882           JUNCTION     0.54     1.68     8.40     0  02:53        1.60
  YS02001884           JUNCTION     0.64     1.77     8.39     0  02:53        1.70
  YS02001759           JUNCTION     1.74     2.07     8.43     0  03:32        2.06
  YS02001887           JUNCTION     0.72     1.83     8.37     0  02:53        1.78
  YS02001890           JUNCTION     0.74     1.81     8.32     0  02:53        1.80
  YS02001898           JUNCTION     0.51     1.58     8.32     0  02:53        1.55
  YS02001901           JUNCTION     0.63     1.69     8.30     0  02:53        1.67
  YS02001904           JUNCTION     0.61     1.64     8.27     0  02:53        1.63
  YS02001907           JUNCTION     0.94     1.96     8.25     0  02:53        1.96
  YS02001910           JUNCTION     0.73     1.87     8.37     0  02:53        1.77
  YS02001915           JUNCTION     0.53     1.79     8.50     0  02:53        1.58
  YS02001918           JUNCTION     0.27     1.63     8.70     0  02:53        1.27
  YS02001619           JUNCTION     1.22     1.61     8.54     0  02:42        1.51
  YS02001629           JUNCTION     1.58     1.85     8.40     0  02:42        1.85
  YS02001641           JUNCTION     1.68     1.97     8.41     0  02:44        1.93
  YS02001644           JUNCTION     1.68     1.92     8.35     0  02:47        1.92
  YS02001652           JUNCTION     1.52     2.16     8.76     0  02:58        1.92
  YS02001655           JUNCTION     1.28     2.20     9.05     0  03:00        1.85
  YS02001920           JUNCTION     0.37     1.49     8.49     0  02:53        1.35
  YS02001923           JUNCTION     0.21     1.12     8.38     0  02:55        1.11
  YS02001926           JUNCTION     0.26     0.94     8.38     0  02:54        0.92
  YS02001929           JUNCTION     0.15     0.68     8.38     0  02:55        0.65
  YS02001658           JUNCTION     1.01     2.30     9.44     0  03:00        1.87
  YS02001661           JUNCTION     0.79     2.46     9.86     0  03:00        1.84
  YS02001664           JUNCTION     0.35     0.57     8.49     0  02:58        0.57
  YS02001622           JUNCTION     1.24     1.62     8.52     0  02:42        1.52
  YS02001633           JUNCTION     1.67     2.00     8.45     0  02:45        1.96
  YS02001649           JUNCTION     1.72     2.05     8.44     0  02:58        2.05
  YS02001757           JUNCTION     1.84     2.17     8.43     0  03:27        2.16
  YS02001895           JUNCTION     0.51     1.58     8.33     0  02:53        1.55
  YS02001625           JUNCTION     1.53     1.78     8.38     0  02:42        1.78
  YS02163301           JUNCTION     1.61     1.93     8.45     0  02:46        1.88
  YS02163601           JUNCTION     1.72     2.05     8.45     0  02:44        2.00
  YS02164001           JUNCTION     1.66     1.99     8.45     0  02:44        1.93
  YS02001647           JUNCTION     1.51     1.80     8.41     0  03:07        1.79
  YSB1154              JUNCTION     0.27     0.45     9.51     0  03:01        0.45
  YSB6556              JUNCTION     0.16     0.34     9.51     0  03:01        0.34
  YSB1174              JUNCTION     0.22     0.40     9.51     0  03:01        0.40
  YSB1171              JUNCTION     0.42     0.60     9.51     0  03:01        0.60
  YS02006553           JUNCTION     0.94     1.98     8.26     0  02:53        1.96
  YS02006561           JUNCTION     0.31     1.18     7.84     0  02:53        1.07
  YS02006556           JUNCTION     0.91     1.96     8.27     0  02:53        1.91
  YS02006558           JUNCTION     0.95     2.00     8.27     0  02:53        1.95
  YS02001783           JUNCTION     0.54     1.58     7.72     0  02:53        1.46
  YS02001784           JUNCTION     0.56     1.71     7.77     0  02:46        1.41
  YS02001786           JUNCTION     0.50     2.11     8.14     0  02:46        1.26
  YS02001788           JUNCTION     0.43     1.97     7.95     0  02:46        1.12
  YS02001790           JUNCTION     0.54     1.96     7.60     0  02:45        1.29
  YS02001791           JUNCTION     0.52     2.50     7.97     0  04:29        1.27
  YS02001793           JUNCTION     0.73     2.37     7.20     0  02:44        1.80
  WS02004139           JUNCTION     0.61     0.74     5.65     0  02:40        0.73
  WSC                  OUTFALL      0.32     0.41     1.08     0  02:44        0.41
  3                    OUTFALL      0.12     0.23     6.23     0  00:00        0.21
  4                    OUTFALL      0.04     0.15     7.15     0  02:36        0.15
  5                    OUTFALL      0.00     0.00     5.00     0  00:00        0.00
  JK-storage           STORAGE      2.82     5.80     6.60     0  02:46        5.80
  CC-storage           STORAGE      1.05     1.37     8.37     0  07:32        1.37
  XR-storage           STORAGE      7.01     7.72     5.72     0  02:49        7.72
  
  
  *******************
  Node Inflow Summary
  *******************
  
  -------------------------------------------------------------------------------------------------
                                  Maximum  Maximum                  Lateral       Total        Flow
                                  Lateral    Total  Time of Max      Inflow      Inflow     Balance
                                   Inflow   Inflow   Occurrence      Volume      Volume       Error
  Node                 Type           LPS      LPS  days hr:min    10^6 ltr    10^6 ltr     Percent
  -------------------------------------------------------------------------------------------------
  WS02001211           JUNCTION      7.35   388.05     0  06:09       0.207        6.99       0.523
  WS02001212           JUNCTION      0.00   388.44     0  06:09           0        6.95       0.297
  WS02001213           JUNCTION      0.00   388.72     0  06:10           0        6.93       0.303
  WS02003069           JUNCTION      0.32  1013.66     0  02:42     0.00902        16.2       0.161
  WS02003072           JUNCTION      0.00  1012.88     0  02:43           0        16.1       0.202
  WS02003073           JUNCTION      1.82  1014.33     0  02:43      0.0514        16.2       0.223
  WS02003060           JUNCTION     16.53  1013.86     0  02:42       0.466        16.2       0.156
  WS02003066           JUNCTION      0.00   667.95     0  03:06           0        8.85       0.041
  WS02003059           JUNCTION      0.00   389.46     0  06:10           0        6.91       0.537
  WS02003067           JUNCTION      0.00   667.93     0  03:05           0        8.86       0.089
  WS02004401           JUNCTION      0.00   670.74     0  03:02           0        9.06       0.223
  WS02004402           JUNCTION      0.00   669.72     0  03:02           0        9.04       0.211
  WS02004403           JUNCTION      0.00   669.26     0  03:04           0        9.03       0.193
  WS02004404           JUNCTION      0.16   669.15     0  03:03     0.00457        9.01       0.146
  WS02004406           JUNCTION      0.00   669.04     0  03:03           0        8.98       0.355
  WS02004409           JUNCTION      0.00   668.75     0  03:03           0        8.94       0.150
  WS02004410           JUNCTION      0.00   668.31     0  03:05           0        8.93       0.170
  WS02004411           JUNCTION      0.00   668.14     0  03:05           0        8.91       0.175
  WS02004412           JUNCTION      0.00   667.99     0  03:05           0         8.9       0.192
  WS02004413           JUNCTION      0.00   667.97     0  03:05           0        8.88       0.293
  WS02004405           JUNCTION      0.04   669.13     0  03:03     0.00107           9       0.221
  WS02006109           JUNCTION      1.23   659.89     0  03:02      0.0347        9.12       0.245
  WS02006110           JUNCTION      0.00   659.99     0  03:02           0         9.1       0.219
  WS02006111           JUNCTION      0.00   691.25     0  03:03           0        9.07       0.048
  WS02006112           JUNCTION     14.47   675.23     0  03:00      0.0629        9.13       0.298
  WS02006113           JUNCTION      0.00   660.66     0  03:01           0        9.08       0.107
  WS02006115           JUNCTION      0.00   675.28     0  03:00           0         9.1       0.209
  WS02006116           JUNCTION      0.00   670.54     0  03:02           0        9.08       0.201
  WS02006230           JUNCTION     10.28   401.18     0  04:20        0.29        7.24       0.183
  WS02006231           JUNCTION      0.00   390.83     0  04:20           0        6.96       0.168
  WS02006232           JUNCTION      0.00   390.83     0  04:20           0        6.98       0.236
  WS02006234           JUNCTION      0.00   390.81     0  04:20           0        6.99       0.117
  WS02006235           JUNCTION      0.00   390.80     0  04:20           0        7.03       0.156
  WS02006238           JUNCTION      0.00   343.78     0  06:40           0        5.05       0.156
  WS02006240           JUNCTION      0.00   337.69     0  06:40           0        5.05       0.239
  WS02006242           JUNCTION      0.00   334.64     0  06:40           0        5.05       0.284
  WS02006243           JUNCTION      0.00   330.86     0  06:41           0        5.05       0.112
  WS02006245           JUNCTION      0.00   328.47     0  06:41           0        5.06       0.171
  WS02006247           JUNCTION      0.00   328.43     0  06:30           0        5.07       0.129
  WS02006248           JUNCTION      0.00   332.34     0  06:30           0        5.07       0.071
  WS02006249           JUNCTION      0.00   472.27     0  02:50           0        6.05       0.181
  WS02006239           JUNCTION      0.00   342.07     0  06:40           0        5.05       0.234
  WS02006251           JUNCTION      0.08   472.31     0  02:49     0.00217        6.07       0.144
  WS02006252           JUNCTION      0.00   400.00     0  02:20           0        5.69       0.008
  WS02006253           JUNCTION      1.91    81.00     0  03:01     0.00814       0.381       0.989
  WS02006256           JUNCTION      0.00   600.00     0  00:00           0        7.24       0.031
  WS02004138           JUNCTION      0.00   380.00     0  06:00           0        6.81       0.062
  WS02004407           JUNCTION      0.00   668.98     0  03:03           0        8.95       0.073
  WS02006228           JUNCTION      0.00   658.80     0  03:02           0         9.1       0.176
  WS02006229           JUNCTION      0.00   657.54     0  03:02           0        9.11       0.126
  WS02006280           JUNCTION      0.00   375.54     0  03:02           0        1.89       0.004
  WS02006284           JUNCTION      0.10   375.54     0  03:02      0.0027        1.89       0.064
  WS02006287           JUNCTION      0.00   375.26     0  03:01           0        1.89       0.037
  WSF200               JUNCTION      0.00   667.93     0  03:06           0        8.84       0.037
  HS02004901           JUNCTION     17.47    17.47     0  03:01      0.0757      0.0759       2.380
  HS02004881           JUNCTION      7.55    79.19     0  03:01      0.0331       0.357       0.086
  HS02004876           JUNCTION     14.15    72.10     0  03:01      0.0636       0.324       0.171
  HS02004870           JUNCTION     14.17    58.27     0  03:01      0.0626       0.261       0.043
  HS02004862           JUNCTION     13.95    44.46     0  03:01      0.0685       0.198       0.089
  HS02004856           JUNCTION     10.64    30.79     0  03:01      0.0471       0.131       1.117
  HS02004852           JUNCTION      0.00    20.44     0  03:01           0       0.084       0.069
  HS02004848           JUNCTION     32.07    32.07     0  03:01       0.151       0.151       0.033
  HS02004842           JUNCTION      0.00    11.42     0  03:01           0      0.0801      19.388
  HS02004837           JUNCTION     30.75    41.91     0  03:01       0.288       0.355       0.230
  HS02004830           JUNCTION      0.15    41.84     0  03:01     0.00423       0.346       0.358
  HS02004824           JUNCTION     40.25    81.79     0  03:01       0.197       0.542       0.100
  HS02004817           JUNCTION      0.60    82.18     0  03:01      0.0169       0.558       3.079
  HS02004807           JUNCTION     26.15   107.25     0  03:01       0.115       0.657       0.656
  HS02004802           JUNCTION      0.00   106.49     0  03:01           0       0.653       0.618
  HS02004799           JUNCTION     21.02   227.51     0  03:01      0.0932        1.06       0.236
  HS02004792           JUNCTION     88.55   207.33     0  03:01       0.396       0.966       0.043
  HS02004788           JUNCTION     30.78   119.37     0  03:01       0.177       0.571       0.068
  HS02004785           JUNCTION      0.15    89.79     0  03:01     0.00423       0.396       0.125
  HS02004777           JUNCTION      0.03    90.24     0  03:01    0.000846       0.397       1.326
  HS02004770           JUNCTION     73.89    90.93     0  03:01       0.324       0.398       0.787
  HS02004480           JUNCTION      0.00   269.27     0  03:01           0        1.25       0.098
  HS02004479           JUNCTION      0.00    42.82     0  03:02           0       0.204       0.360
  HS02004478           JUNCTION      0.00   375.17     0  03:01           0        1.89       0.018
  YS02001745           JUNCTION    297.18   419.28     0  02:45        2.34        2.35       0.476
  YS02001748           JUNCTION      0.04   621.29     0  02:45     0.00127        2.34       0.980
  YS02001751           JUNCTION      0.01   313.44     0  03:01     0.00031         2.3       1.037
  YS02001754           JUNCTION      0.26   313.60     0  03:01     0.00733        2.29       1.101
  YS02001762           JUNCTION      0.00   356.84     0  02:58           0        2.03       1.048
  YS02001765           JUNCTION      0.00   357.01     0  02:58           0        2.03       1.208
  YS02001767           JUNCTION      0.54   356.95     0  02:58      0.0151        2.05       1.774
  YS02001770           JUNCTION    373.02   373.02     0  03:01        2.63        2.64       1.224
  YS02001774           JUNCTION      0.00   222.89     0  03:27           0       0.578       4.549
  YS02001779           JUNCTION      0.01   222.97     0  03:27    0.000141       0.547       2.908
  YS02001882           JUNCTION      0.00    41.99     0  02:48           0      0.0171      14.747
  YS02001884           JUNCTION      0.00    81.08     0  02:47           0       0.054      12.770
  YS02001759           JUNCTION    359.84   703.38     0  02:58        2.43        4.42       0.522
  YS02001887           JUNCTION    453.35   453.35     0  03:01         2.8        2.83       0.301
  YS02001890           JUNCTION      0.00   453.47     0  03:01           0        2.79       0.330
  YS02001898           JUNCTION      0.00   453.51     0  03:01           0        2.77       0.116
  YS02001901           JUNCTION      0.00   453.57     0  03:01           0        2.77       0.245
  YS02001904           JUNCTION      0.00   453.67     0  03:01           0        2.77       0.225
  YS02001907           JUNCTION      0.00   889.81     0  02:56           0        6.12       0.401
  YS02001910           JUNCTION      0.00   471.44     0  02:55           0        3.37       0.351
  YS02001915           JUNCTION    263.65   471.41     0  02:55        1.96         3.4       0.176
  YS02001918           JUNCTION      0.00   230.64     0  02:55           0        1.45       0.126
  YS02001619           JUNCTION    257.27   257.27     0  03:01        1.95        1.95       0.634
  YS02001629           JUNCTION      0.00   217.18     0  02:51           0        1.65       1.771
  YS02001641           JUNCTION      0.00   458.08     0  02:51           0        3.86       0.550
  YS02001644           JUNCTION    282.70   938.68     0  03:27        2.25        7.33       0.358
  YS02001652           JUNCTION      0.00   377.67     0  03:00           0        2.03       1.150
  YS02001655           JUNCTION      0.15   377.64     0  03:00     0.00434        2.06       1.238
  YS02001920           JUNCTION      2.87   230.57     0  02:55      0.0809        1.44       0.207
  YS02001923           JUNCTION      0.04   242.28     0  02:55     0.00106        1.35       0.046
  YS02001926           JUNCTION      0.05   192.43     0  02:56     0.00147        1.34       0.252
  YS02001929           JUNCTION    129.40   129.40     0  03:01        1.34        1.34       0.041
  YS02001658           JUNCTION      0.00   546.85     0  02:43           0        2.08       1.096
  YS02001661           JUNCTION      0.00   705.43     0  02:57           0        2.82       0.057
  YS02001664           JUNCTION    327.80   353.71     0  02:56        2.09        2.83       0.246
  YS02001622           JUNCTION      0.00   257.42     0  03:01           0        1.94       1.669
  YS02001633           JUNCTION    287.40   457.70     0  02:51        2.32        3.92       0.824
  YS02001649           JUNCTION      0.00   975.62     0  02:52           0        4.69       0.799
  YS02001757           JUNCTION      0.00  1851.04     0  02:53           0          10       0.929
  YS02001895           JUNCTION      0.00   453.50     0  03:01           0        2.78       0.174
  YS02001625           JUNCTION      0.00   257.33     0  03:01           0         1.9       2.056
  YS02163301           JUNCTION      0.00   217.45     0  02:51           0        1.62       1.489
  YS02163601           JUNCTION      0.11   457.92     0  02:51      0.0031        3.88       0.781
  YS02164001           JUNCTION      0.00   457.79     0  02:51           0        3.86       0.524
  YS02001647           JUNCTION      0.00   694.60     0  02:51           0        3.48       0.823
  YSB1154              JUNCTION     25.19    25.19     0  03:01       0.113       0.114       1.286
  YSB6556              JUNCTION      0.00    24.91     0  03:01           0       0.115       1.100
  YSB1174              JUNCTION     19.06    19.06     0  03:01      0.0821      0.0827       1.581
  YSB1171              JUNCTION      0.00    43.19     0  03:01           0       0.203       3.220
  YS02006553           JUNCTION      0.00   667.48     0  03:17           0        5.91       0.263
  YS02006561           JUNCTION      0.00   964.14     0  03:00           0        8.43       0.007
  YS02006556           JUNCTION      0.00   667.18     0  03:17           0        5.91       0.191
  YS02006558           JUNCTION    392.87   964.33     0  03:01        2.57        8.46       0.064
  YS02001783           JUNCTION      0.00   964.17     0  03:00           0        8.43       0.028
  YS02001784           JUNCTION      1.06   965.18     0  03:00      0.0299        8.45       0.044
  YS02001786           JUNCTION      0.06   965.18     0  03:00     0.00159        8.45       0.041
  YS02001788           JUNCTION      0.07   965.29     0  03:00       0.002        8.45       0.023
  YS02001790           JUNCTION      0.15   965.44     0  03:00     0.00437        8.45       0.029
  YS02001791           JUNCTION      0.00   965.42     0  03:00           0        8.45       0.011
  YS02001793           JUNCTION      0.00   965.56     0  03:00           0        8.45      -0.004
  WS02004139           JUNCTION      0.32   380.32     0  06:02     0.00905        6.82       0.551
  WSC                  OUTFALL       0.00  1013.69     0  02:44           0        16.1       0.000
  3                    OUTFALL       0.00   597.65     0  00:00           0        5.24       0.000
  4                    OUTFALL       0.00   207.79     0  02:36           0       0.965       0.000
  5                    OUTFALL       0.00     0.00     0  00:00           0           0       0.000 ltr
  JK-storage           STORAGE       0.00   965.54     0  03:00           0         8.6     -10.106
  CC-storage           STORAGE       0.00  1850.76     0  02:53           0        9.45       0.545
  XR-storage           STORAGE     690.11   690.11     0  03:01        9.61        10.2      -0.004
  
  
  **********************
  Node Surcharge Summary
  **********************
  
  Surcharging occurs when water rises above the top of the highest conduit.
  ---------------------------------------------------------------------
                                               Max. Height   Min. Depth
                                   Hours       Above Crown    Below Rim
  Node                 Type      Surcharged         Meters       Meters
  ---------------------------------------------------------------------
  WS02004403           JUNCTION        0.01          0.001        2.029
  WS02004404           JUNCTION        0.86          0.062        2.718
  WS02004406           JUNCTION        0.56          0.034        2.416
  WS02004405           JUNCTION        0.76          0.049        2.751
  WS02006109           JUNCTION        2.98          0.289        1.531
  WS02006110           JUNCTION        1.14          0.114        1.736
  WS02006112           JUNCTION        1.26          0.205        1.475
  WS02006230           JUNCTION        0.85          0.094        1.476
  WS02006231           JUNCTION        0.96          0.120        1.410
  WS02006232           JUNCTION        3.23          0.253        1.227
  WS02006234           JUNCTION        1.17          0.143        1.097
  WS02006235           JUNCTION        2.31          0.177        1.113
  WS02006238           JUNCTION        2.84          0.195        1.235
  WS02006240           JUNCTION        1.13          0.091        1.299
  WS02006242           JUNCTION        2.21          0.129        0.691
  WS02006243           JUNCTION        0.75          0.033        0.737
  WS02006247           JUNCTION        0.28          0.003        0.757
  WS02006239           JUNCTION        1.68          0.121        1.169
  WS02006252           JUNCTION        2.95          0.193        0.907
  WS02006256           JUNCTION        0.01          1.050        0.000
  WS02006228           JUNCTION        2.83          0.348        1.852
  YS02001748           JUNCTION        5.02          1.046        0.144
  YS02001751           JUNCTION        5.14          1.052        0.148
  YS02001754           JUNCTION        5.37          0.947        0.203
  YS02001762           JUNCTION        5.64          1.028        0.122
  YS02001765           JUNCTION        5.61          0.976        0.124
  YS02001767           JUNCTION        5.58          0.929        0.101
  YS02001770           JUNCTION        5.51          0.881        0.039
  YS02001774           JUNCTION        5.63          0.973        0.077
  YS02001779           JUNCTION        5.36          0.680        0.000
  YS02001882           JUNCTION        0.76          0.685        0.145
  YS02001884           JUNCTION        0.79          0.713        0.157
  YS02001759           JUNCTION        5.66          1.069        0.141
  YS02001887           JUNCTION        0.87          0.777        0.173
  YS02001890           JUNCTION        0.90          0.760        0.000
  YS02001898           JUNCTION        0.71          0.555        0.185
  YS02001901           JUNCTION        0.84          0.689        0.181
  YS02001904           JUNCTION        0.81          0.642        0.208
  YS02001907           JUNCTION        1.49          0.950        0.000
  YS02001910           JUNCTION        0.95          0.866        0.234
  YS02001915           JUNCTION        0.74          0.786        0.214
  YS02001918           JUNCTION        0.50          0.632        0.178
  YS02001619           JUNCTION        5.17          0.610        0.000
  YS02001629           JUNCTION        5.17          0.470        0.000
  YS02001641           JUNCTION        5.62          0.973        0.127
  YS02001644           JUNCTION        5.62          0.920        0.000
  YS02001652           JUNCTION        5.39          1.130        0.000
  YS02001655           JUNCTION        5.18          1.200        0.000
  YS02001920           JUNCTION        0.54          0.485        0.655
  YS02001658           JUNCTION        5.04          1.300        0.000
  YS02001661           JUNCTION        0.22          1.390        0.000
  YS02001622           JUNCTION        5.21          0.620        0.000
  YS02001633           JUNCTION        5.60          0.979        0.081
  YS02001649           JUNCTION        5.64          1.050        0.000
  YS02001757           JUNCTION        5.74          1.167        0.043
  YS02001895           JUNCTION        0.73          0.578        0.172
  YS02001625           JUNCTION        5.40          0.780        0.000
  YS02163301           JUNCTION        5.58          0.933        0.097
  YS02163601           JUNCTION        5.64          1.055        0.025
  YS02164001           JUNCTION        5.61          0.989        0.111
  YS02001647           JUNCTION        5.40          0.802        0.098
  YS02006553           JUNCTION        1.57          0.977        0.213
  YS02006561           JUNCTION        0.63          0.377        0.773
  YS02006556           JUNCTION        1.19          0.919        0.431
  YS02006558           JUNCTION        1.15          0.900        0.500
  YS02001783           JUNCTION        1.13          0.776        0.824
  YS02001784           JUNCTION        1.18          0.906        0.584
  YS02001786           JUNCTION        1.13          1.309        0.121
  YS02001788           JUNCTION        1.13          1.170        0.310
  YS02001790           JUNCTION        1.87          1.157        0.000
  YS02001791           JUNCTION        1.96          1.704        0.216
  YS02001793           JUNCTION        2.31          1.369        1.231
  
  
  *********************
  Node Flooding Summary
  *********************
  
  Flooding refers to all water that overflows a node, whether it ponds or not.
  --------------------------------------------------------------------------
                                                             Total   Maximum
                                 Maximum   Time of Max       Flood    Ponded
                        Hours       Rate    Occurrence      Volume     Depth
  Node                 Flooded       LPS   days hr:min    10^6 ltr    Meters
  --------------------------------------------------------------------------
  WS02006256              0.01    406.11      0  00:00       0.001     0.000
  YS02001779              2.20    222.92      0  03:27       0.526     0.000
  YS02001890              0.01     13.45      0  02:53       0.000     0.000
  YS02001907              0.37    315.43      0  03:00       0.201     0.000
  YS02001619              0.01     16.92      0  02:42       0.000     0.000
  YS02001629              0.01     33.31      0  02:42       0.000     0.000
  YS02001644              4.07    938.63      0  03:27       5.069     0.000
  YS02001652              0.01     22.09      0  03:10       0.000     0.000
  YS02001655              0.01     18.94      0  03:05       0.000     0.000
  YS02001658              0.01     13.54      0  03:11       0.000     0.000
  YS02001661              0.01    177.01      0  03:10       0.001     0.000
  YS02001622              0.01     26.87      0  02:42       0.000     0.000
  YS02001649              0.08     51.22      0  03:10       0.005     0.000
  YS02001625              0.84    165.97      0  03:01       0.221     0.000
  YS02001790              0.01    182.70      0  02:45       0.000     0.000
  JK-storage              1.68    821.07      0  02:50       2.325     0.000
  XR-storage              3.58    594.36      0  02:50       2.498     0.000
  
  
  **********************
  Storage Volume Summary
  **********************
  
  --------------------------------------------------------------------------------------------------
                         Average     Avg  Evap Exfil       Maximum     Max    Time of Max    Maximum
                          Volume    Pcnt  Pcnt  Pcnt        Volume    Pcnt     Occurrence    Outflow
  Storage Unit           1000 m3    Full  Loss  Loss       1000 m3    Full    days hr:min        LPS
  --------------------------------------------------------------------------------------------------
  JK-storage               0.142      49     0     0         0.291     100       0  02:46     663.79
  CC-storage               2.927      19     0     0         3.804      24       0  07:32     400.00
  XR-storage               0.842      91     0     0         0.926     100       0  02:49     380.00
  
  
  ***********************
  Outfall Loading Summary
  ***********************
  
  -----------------------------------------------------------
                         Flow       Avg       Max       Total
                         Freq      Flow      Flow      Volume
  Outfall Node           Pcnt       LPS       LPS    10^6 ltr
  -----------------------------------------------------------
  WSC                   99.99    658.57   1013.69      16.118
  3                     90.74    271.84    597.65       5.242
  4                     53.29     81.45    207.79       0.965
  5                      0.00      0.00      0.00       0.000
  -----------------------------------------------------------
  System                61.01   1011.86   1651.98      22.325
  
  
  ********************
  Link Flow Summary
  ********************
  
  -----------------------------------------------------------------------------
                                 Maximum  Time of Max   Maximum    Max/    Max/
                                  |Flow|   Occurrence   |Veloc|    Full    Full
  Link                 Type          LPS  days hr:min     m/sec    Flow   Depth
  -----------------------------------------------------------------------------
  WS02003066WSF200     CONDUIT    667.93     0  03:06      2.94    0.11    0.26
  WS02006287WS02006284 CONDUIT    375.44     0  03:02      1.98    0.17    0.29
  WS02006284WS02006280 CONDUIT    375.54     0  03:02      2.22    0.16    0.27
  WS02006280WS02006229 CONDUIT    375.57     0  03:02      3.58    0.08    0.19
  WS02006229WS02006228 CONDUIT    658.80     0  03:02      1.31    2.18    1.00
  WS02006256WS02006235 CONDUIT    177.52     0  00:01      2.73    1.88    1.00
  WS02006253WS02006251 CONDUIT     84.05     0  03:00      0.46    0.25    0.99
  WS02006252WS02006251 CONDUIT    400.51     0  06:38      3.19    1.47    1.00
  WS02006251WS02006249 CONDUIT    472.27     0  02:50      1.25    1.36    0.96
  WS02006249WS02006248 CONDUIT    332.34     0  06:30      1.07    1.82    0.91
  WS02006248WS02006247 CONDUIT    328.43     0  06:30      1.05    0.71    0.96
  WS02006247WS02006245 CONDUIT    328.47     0  06:41      1.00    2.60    1.00
  WS02006245WS02006243 CONDUIT    330.86     0  06:41      1.06    0.98    1.00
  WS02006243WS02006242 CONDUIT    334.64     0  06:40      0.91    0.71    1.00
  WS02006242WS02006240 CONDUIT    337.69     0  06:40      0.90    1.34    1.00
  WS02006240WS02006239 CONDUIT    342.07     0  06:40      0.94    1.08    1.00
  WS02006239WS02006238 CONDUIT    343.78     0  06:40      0.91    1.10    1.00
  WS02006238WS02006235 CONDUIT    343.98     0  06:40      1.32    0.77    1.00
  WS02006235WS02006234 CONDUIT    390.81     0  04:20      1.02    4.12    1.00
  WS02006234WS02006232 CONDUIT    390.83     0  04:20      1.17    0.79    1.00
  WS02006232WS02006231 CONDUIT    390.83     0  04:20      1.05    0.82    1.00
  WS02006231WS02006230 CONDUIT    390.90     0  04:20      1.31    5.93    1.00
  WS02006230WS02006229 CONDUIT    401.32     0  04:20      1.04    8.93    1.00
  WS02006228WS02006109 CONDUIT    658.66     0  03:02      1.31    2.88    1.00
  WS02006116WS02004401 CONDUIT    670.74     0  03:02      0.86    0.92    0.98
  WS02006115WS02006116 CONDUIT    670.54     0  03:02      0.90    0.86    0.90
  WS02006113WS02006111 CONDUIT    691.25     0  03:03      2.59    0.83    0.54
  WS02006112WS02006115 CONDUIT    675.28     0  03:00      0.88    0.40    0.94
  WS02006111WS02006112 CONDUIT    660.80     0  03:00      1.72    0.31    0.72
  WS02006110WS02006113 CONDUIT    660.66     0  03:01      1.51    0.60    0.82
  WS02006109WS02006110 CONDUIT    659.99     0  03:02      1.31    1.27    1.00
  WS02004411WS02004412 CONDUIT    667.99     0  03:05      1.03    0.95    0.77
  WS02004401WS02004402 CONDUIT    669.72     0  03:02      0.86    0.80    0.99
  WS02004413WS02003067 CONDUIT    667.93     0  03:05      1.25    0.29    0.64
  WS02004412WS02004413 CONDUIT    667.97     0  03:05      0.95    0.45    0.84
  WS02004410WS02004411 CONDUIT    668.14     0  03:05      1.04    0.91    0.77
  WS02004409WS02004410 CONDUIT    668.31     0  03:05      1.04    0.86    0.76
  WS02004407WS02004409 CONDUIT    668.75     0  03:03      1.53    0.24    0.54
  WS02004406WS02004407 CONDUIT    668.98     0  03:03      1.20    0.30    0.67
  WS02004405WS02004406 CONDUIT    669.04     0  03:03      0.85    1.32    1.00
  WS02004404WS02004405 CONDUIT    669.09     0  03:03      0.85    6.56    1.00
  WS02004403WS02004404 CONDUIT    668.98     0  03:03      0.85    0.48    1.00
  WS02004402WS02004403 CONDUIT    669.26     0  03:04      0.85    0.96    1.00
  WS02004139WS02001211 CONDUIT    380.70     0  06:09      0.69    0.48    0.59
  WS02004138WS02004139 CONDUIT    380.00     0  06:02      2.94    0.08    0.44
  WS02003067WS02003066 CONDUIT    667.95     0  03:06      1.36    0.21    0.45
  WS02001213WS02003059 CONDUIT    389.46     0  06:10      0.67    0.64    0.79
  WS02001212WS02001213 CONDUIT    388.72     0  06:10      1.31    0.60    0.48
  WS02001211WS02001212 CONDUIT    388.44     0  06:09      0.77    0.30    0.65
  WS02003072WS02003073 CONDUIT   1012.51     0  02:43      1.77    2.19    0.50
  WS02003069WS02003072 CONDUIT   1012.88     0  02:43      1.66    0.49    0.53
  WS02003060WS02003069 CONDUIT   1013.34     0  02:42      1.90    0.40    0.48
  WS02003059WS02003060 CONDUIT    390.39     0  06:10      0.93    0.25    0.68
  HS02004901HS02004770 CONDUIT     17.71     0  03:01      0.07    0.07    0.39
  HS02004876HS02004881 CONDUIT     71.90     0  03:01      0.92    0.76    0.11
  HS02004870HS02004876 CONDUIT     58.03     0  03:01      0.63    0.04    0.13
  HS02004842HS02004848 CONDUIT     11.42     0  03:01      0.05    0.01    0.30
  HS02004837HS02004842 CONDUIT     11.94     0  03:02      0.41    0.01    0.32
  HS02004830HS02004837 CONDUIT     41.69     0  03:01      0.56    0.04    0.11
  HS02004824HS02004830 CONDUIT     41.67     0  03:01      0.58    0.05    0.10
  HS02004817HS02004824 CONDUIT     81.58     0  03:01      0.25    0.04    0.47
  HS02004770HS02004777 CONDUIT     90.21     0  03:01      0.32    0.16    0.41
  HS02004799HS02004480 CONDUIT    226.97     0  03:01      0.78    0.29    0.42
  HS02004792HS02004799 CONDUIT    206.60     0  03:01      0.88    0.13    0.33
  HS02004788HS02004792 CONDUIT    118.94     0  03:01      1.01    0.08    0.17
  HS02004785HS02004788 CONDUIT     89.52     0  03:02      0.66    0.67    0.19
  HS02004777HS02004785 CONDUIT     89.64     0  03:01      0.38    0.11    0.33
  HS02004480HS02004478 CONDUIT    269.12     0  03:01      1.20    1.13    0.32
  HS02004479HS02004480 CONDUIT     44.17     0  03:02      0.23    0.04    0.40
  HS02004862HS02004870 CONDUIT     44.23     0  03:01      0.64    0.05    0.10
  HS02004848HS02004852 CONDUIT     20.44     0  03:01      0.44    0.02    0.07
  HS02004856HS02004862 CONDUIT     30.56     0  03:01      0.47    0.03    0.09
  HS02004852HS02004856 CONDUIT     20.26     0  03:01      0.24    0.02    0.12
  HS02004802HS02004478 CONDUIT    106.59     0  03:02      0.45    0.09    0.35
  HS02004478WS02006287 CONDUIT    375.26     0  03:01      1.68    0.11    0.25
  HS02004817HS02004807 CONDUIT     82.18     0  03:01      0.19    0.05    0.62
  HS02004807HS02004802 CONDUIT    106.49     0  03:01      0.38    0.20    0.40
  YS02001759YS02001757 CONDUIT    703.34     0  02:58      0.90    0.50    1.00
  YS02001762YS02001759 CONDUIT    356.90     0  02:58      0.45    0.41    1.00
  YS02001765YS02001762 CONDUIT    356.84     0  02:58      0.45    0.33    1.00
  YS02001770YS02001767 CONDUIT    356.41     0  02:58      0.45    1.41    1.00
  YS02001774YS02001770 CONDUIT    222.89     0  03:27      0.28    0.14    1.00
  YS02001779YS02001774 CONDUIT    222.96     0  03:27      0.28    0.11    1.00
  YS02001649YS02001757 CONDUIT    975.57     0  02:52      1.24    0.59    1.00
  YS02001767YS02001765 CONDUIT    357.01     0  02:58      0.45    0.45    1.00
  YS02006561YS02001783 CONDUIT    964.17     0  03:00      2.15    0.50    1.00
  YS02001783YS02001784 CONDUIT    964.12     0  03:00      1.92    1.33    1.00
  YS02001784YS02001785 CONDUIT    965.13     0  03:00      1.92    2.25    1.00
  YS02001788YS02001790 CONDUIT    965.29     0  03:00      2.38    0.71    1.00
  YS02001790YS02001791 CONDUIT    965.42     0  03:00      2.91    1.05    1.00
  YS02001791YS02001793 CONDUIT    965.56     0  03:00      5.81    0.41    1.00
  YS02001910YS02001907 CONDUIT    471.47     0  02:55      0.60    0.27    1.00
  YS02001786YS02001788 CONDUIT    965.22     0  03:00      2.27    1.86    1.00
  YS02001915YS02001910 CONDUIT    471.44     0  02:55      0.60    0.23    1.00
  YS02001918YS02001915 CONDUIT    231.27     0  02:55      0.44    0.13    1.00
  YS02001923YS02001920 CONDUIT    227.70     0  02:55      0.68    0.10    1.00
  YS02001926YS02001923 CONDUIT    242.24     0  02:55      0.79    0.35    0.91
  YS02001929YS02001926 CONDUIT    192.38     0  02:56      0.84    0.09    0.80
  YS02001920YS02001918 CONDUIT    230.64     0  02:55      0.67    0.22    1.00
  YS02001629YS02163301 CONDUIT    217.45     0  02:51      0.28    0.27    1.00
  YS02001619YS02001622 CONDUIT    257.42     0  03:01      0.61    0.38    1.00
  YS02001622YS02001625 CONDUIT    257.33     0  03:01      0.33    0.14    1.00
  YS02001625YS02001629 CONDUIT    217.18     0  02:51      0.28    0.10    1.00
  YS02163301YS02001633 CONDUIT    217.61     0  02:51      0.28    0.20    1.00
  YS02163601YS02164001 CONDUIT    457.79     0  02:51      0.58    0.41    1.00
  YS02164001YS02001641 CONDUIT    458.08     0  02:51      0.58    0.63    1.00
  YS02001641YS02001644 CONDUIT    458.00     0  02:51      0.58    1.48    1.00
  YS02001647YS02001649 CONDUIT    694.88     0  02:51      0.88    0.37    1.00
  YS02006553YS02006556 CONDUIT    667.18     0  03:17      0.85    0.57    1.00
  YS02006556YS02006558 CONDUIT    667.58     0  03:17      0.85    0.53    1.00
  YSB6556YSB1171       CONDUIT     24.81     0  03:03      0.09    0.03    0.67
  YS02001907YS02006553 CONDUIT    667.48     0  03:17      0.74    0.79    1.00
  YS02006558YS02006561 CONDUIT    964.14     0  03:00      3.41    2.13    1.00
  YS02001633YS02163601 CONDUIT    457.81     0  02:51      0.58    0.48    1.00
  YS02001644YS02001647 CONDUIT    694.60     0  02:51      0.88    0.41    1.00
  YS02001745YS02001748 CONDUIT    621.24     0  02:45      1.48    0.24    0.93
  YS02001748YS02001751 CONDUIT    313.43     0  03:01      1.05    0.16    1.00
  YS02001751YS02001754 CONDUIT    313.34     0  03:01      0.88    0.15    1.00
  YS02001754YS02001757 CONDUIT    313.85     0  03:01      0.40    0.13    1.00
  YS02001882YS02001884 CONDUIT     41.99     0  02:48      0.09    0.05    1.00
  YS02001884YS02001887 CONDUIT     81.08     0  02:47      0.10    0.11    1.00
  YS02001890YS02001895 CONDUIT    453.50     0  03:01      0.58    0.21    1.00
  YS02001895YS02001898 CONDUIT    453.51     0  03:01      0.59    0.79    1.00
  YS02001898YS02001901 CONDUIT    453.57     0  03:01      0.58    0.29    1.00
  YS02001901YS02001904 CONDUIT    453.67     0  03:01      0.58    0.70    1.00
  YS02001904YS02001907 CONDUIT    453.75     0  03:01      0.58    0.16    1.00
  YS02001887YS02001890 CONDUIT    453.47     0  03:01      0.58    0.78    1.00
  YS02001652YS02001649 CONDUIT    377.66     0  03:00      0.50    0.19    1.00
  YS02001655YS02001652 CONDUIT    377.67     0  03:00      0.93    0.18    1.00
  YS02001658YS02001655 CONDUIT    377.49     0  03:00      1.21    0.16    1.00
  YS02001661YS02001658 CONDUIT    546.85     0  02:43      1.56    0.21    1.00
  YS02001664YS02001661 CONDUIT    705.43     0  02:57      1.63    0.22    0.71
  YSB1154YSB6556       CONDUIT     24.91     0  03:01      0.19    0.04    0.56
  YSB1174YSB1171       CONDUIT     18.78     0  03:01      0.07    0.03    0.68
  YSB1171HS02004479    CONDUIT     42.82     0  03:02      0.54    0.03    0.53
  HS02004881HS02006253 CONDUIT     79.15     0  03:01      1.60    0.02    0.30
  YS02001793JiankangQianchi CONDUIT    965.54     0  03:00     16.39    0.08    1.00
  YS02001757CaochengTiaoxuchi CONDUIT   1850.76     0  02:53      2.56    0.81    1.00
  WSF200WS02003060     CONDUIT    667.96     0  03:06      2.07    0.15    0.36
  1                    CONDUIT   1013.69     0  02:44      3.34    0.35    0.41
  2                    CONDUIT    207.79     0  02:36      5.89    0.50    0.50
  3                    CONDUIT    597.65     0  00:00     10.06    0.95    0.86
  4                    CONDUIT      0.00     0  00:00      0.00    0.00    0.00
  CC-Pump-1            PUMP       200.00     0  02:10              1.00
  CC-Pump-2            PUMP       200.00     0  01:59              1.00
  JK-Pump-1            PUMP       300.00     0  00:00              1.00
  JK-Pump-2            PUMP       300.00     0  00:00              1.00
  XR-Pump-1            PUMP        95.00     0  00:00              1.00
  XR-Pump-2            PUMP        95.00     0  00:00              1.00
  XR-Pump-3            PUMP        95.00     0  00:40              1.00
  XR-Pump-4            PUMP        95.00     0  00:30              1.00
  
  
  ***************************
  Flow Classification Summary
  ***************************
  
  -------------------------------------------------------------------------------------
                      Adjusted    ---------- Fraction of Time in Flow Class ---------- 
                       /Actual         Up    Down  Sub   Sup   Up    Down  Norm  Inlet 
  Conduit               Length    Dry  Dry   Dry   Crit  Crit  Crit  Crit  Ltd   Ctrl  
  -------------------------------------------------------------------------------------
  WS02003066WSF200        1.00   0.05  0.01  0.00  0.00  0.94  0.00  0.00  0.57  0.00
  WS02006287WS02006284    1.00   0.03  0.01  0.00  0.58  0.38  0.00  0.00  0.65  0.00
  WS02006284WS02006280    1.00   0.03  0.00  0.00  0.00  0.00  0.00  0.97  0.00  0.00
  WS02006280WS02006229    1.00   0.03  0.00  0.00  0.00  0.00  0.00  0.97  0.00  0.00
  WS02006229WS02006228    1.00   0.00  0.00  0.00  0.99  0.00  0.00  0.01  0.00  0.00
  WS02006256WS02006235    1.00   0.00  0.00  0.00  1.00  0.00  0.00  0.00  0.00  0.00
  WS02006253WS02006251    1.00   0.02  0.01  0.00  0.97  0.00  0.00  0.00  0.00  0.00
  WS02006252WS02006251    1.00   0.06  0.00  0.00  0.00  0.00  0.94  0.00  0.00  0.00
  WS02006251WS02006249    1.00   0.00  0.00  0.00  1.00  0.00  0.00  0.00  0.25  0.00
  WS02006249WS02006248    1.00   0.00  0.01  0.00  0.91  0.00  0.07  0.00  0.00  0.00
  WS02006248WS02006247    1.00   0.02  0.00  0.00  0.98  0.00  0.00  0.01  0.14  0.00
  WS02006247WS02006245    1.00   0.02  0.00  0.00  0.97  0.00  0.00  0.02  0.00  0.00
  WS02006245WS02006243    1.00   0.01  0.00  0.00  0.95  0.00  0.00  0.03  0.01  0.00
  WS02006243WS02006242    1.00   0.01  0.00  0.00  0.99  0.00  0.00  0.00  0.20  0.00
  WS02006242WS02006240    1.00   0.00  0.00  0.00  1.00  0.00  0.00  0.00  0.00  0.00
  WS02006240WS02006239    1.00   0.00  0.00  0.00  0.97  0.00  0.00  0.03  0.02  0.00
  WS02006239WS02006238    1.00   0.00  0.00  0.00  1.00  0.00  0.00  0.00  0.02  0.00
  WS02006238WS02006235    1.00   0.00  0.00  0.00  1.00  0.00  0.00  0.00  0.00  0.00
  WS02006235WS02006234    1.00   0.00  0.00  0.00  0.96  0.00  0.04  0.00  0.00  0.00
  WS02006234WS02006232    1.00   0.00  0.00  0.00  1.00  0.00  0.00  0.00  0.07  0.00
  WS02006232WS02006231    1.00   0.00  0.00  0.00  0.99  0.00  0.01  0.00  0.00  0.00
  WS02006231WS02006230    1.00   0.00  0.00  0.00  0.79  0.00  0.21  0.00  0.00  0.00
  WS02006230WS02006229    1.00   0.00  0.00  0.00  0.99  0.00  0.00  0.01  0.01  0.00
  WS02006228WS02006109    1.00   0.00  0.00  0.00  1.00  0.00  0.00  0.00  0.00  0.00
  WS02006116WS02004401    1.00   0.02  0.00  0.00  0.98  0.00  0.00  0.00  0.00  0.00
  WS02006115WS02006116    1.00   0.02  0.00  0.00  0.97  0.00  0.00  0.01  0.01  0.00
  WS02006113WS02006111    1.00   0.02  0.00  0.00  0.00  0.98  0.00  0.00  0.09  0.00
  WS02006112WS02006115    1.00   0.02  0.00  0.00  0.98  0.00  0.00  0.00  0.00  0.00
  WS02006111WS02006112    1.00   0.02  0.00  0.00  0.98  0.00  0.00  0.00  0.89  0.00
  WS02006110WS02006113    1.00   0.01  0.00  0.00  0.98  0.00  0.00  0.00  0.00  0.00
  WS02006109WS02006110    1.00   0.00  0.01  0.00  0.98  0.00  0.00  0.00  0.00  0.00
  WS02004411WS02004412    1.00   0.04  0.00  0.00  0.96  0.00  0.00  0.00  0.00  0.00
  WS02004401WS02004402    1.00   0.02  0.00  0.00  0.98  0.00  0.00  0.00  0.00  0.00
  WS02004413WS02003067    1.00   0.05  0.01  0.00  0.00  0.00  0.94  0.00  0.00  0.00
  WS02004412WS02004413    1.00   0.04  0.00  0.00  0.95  0.00  0.00  0.00  0.01  0.00
  WS02004410WS02004411    1.00   0.04  0.00  0.00  0.96  0.00  0.00  0.00  0.00  0.00
  WS02004409WS02004410    1.00   0.04  0.00  0.00  0.96  0.00  0.00  0.00  0.00  0.00
  WS02004407WS02004409    1.00   0.04  0.00  0.00  0.95  0.00  0.00  0.00  0.80  0.00
  WS02004406WS02004407    1.00   0.00  0.04  0.00  0.96  0.00  0.00  0.00  0.00  0.00
  WS02004405WS02004406    1.00   0.00  0.00  0.00  1.00  0.00  0.00  0.00  0.02  0.00
  WS02004404WS02004405    1.00   0.00  0.00  0.00  1.00  0.00  0.00  0.00  0.00  0.00
  WS02004403WS02004404    1.00   0.00  0.02  0.00  0.98  0.00  0.00  0.00  0.02  0.00
  WS02004402WS02004403    1.00   0.02  0.00  0.00  0.98  0.00  0.00  0.00  0.00  0.00
  WS02004139WS02001211    1.00   0.00  0.00  0.00  0.99  0.00  0.01  0.00  0.00  0.00
  WS02004138WS02004139    1.00   0.00  0.00  0.00  0.99  0.01  0.00  0.00  1.00  0.00
  WS02003067WS02003066    1.00   0.06  0.01  0.00  0.94  0.00  0.00  0.00  0.00  0.00
  WS02001213WS02003059    1.00   0.00  0.00  0.00  0.99  0.00  0.00  0.00  0.00  0.00
  WS02001212WS02001213    1.00   0.01  0.00  0.00  0.88  0.00  0.11  0.00  0.00  0.00
  WS02001211WS02001212    1.00   0.00  0.01  0.00  0.99  0.00  0.00  0.00  0.00  0.00
  WS02003072WS02003073    1.00   0.00  0.00  0.00  0.00  0.00  0.00  1.00  0.00  0.00
  WS02003069WS02003072    1.00   0.00  0.00  0.00  0.99  0.01  0.00  0.00  0.23  0.00
  WS02003060WS02003069    1.00   0.00  0.00  0.00  0.99  0.01  0.00  0.00  0.09  0.00
  WS02003059WS02003060    1.00   0.00  0.00  0.00  0.99  0.01  0.00  0.00  0.01  0.00
  HS02004901HS02004770    1.00   0.03  0.00  0.00  0.97  0.00  0.00  0.00  0.00  0.00
  HS02004876HS02004881    1.00   0.02  0.00  0.00  0.91  0.08  0.00  0.00  0.00  0.00
  HS02004870HS02004876    1.00   0.01  0.00  0.00  0.99  0.00  0.00  0.00  0.95  0.00
  HS02004842HS02004848    1.00   0.00  0.03  0.00  0.97  0.00  0.00  0.00  0.58  0.00
  HS02004837HS02004842    1.00   0.00  0.00  0.00  0.99  0.01  0.00  0.00  0.11  0.00
  HS02004830HS02004837    1.00   0.00  0.00  0.00  1.00  0.00  0.00  0.00  0.99  0.00
  HS02004824HS02004830    1.00   0.00  0.00  0.00  1.00  0.00  0.00  0.00  0.00  0.00
  HS02004817HS02004824    1.00   0.00  0.00  0.00  1.00  0.00  0.00  0.00  1.00  0.00
  HS02004770HS02004777    1.00   0.00  0.03  0.00  0.97  0.00  0.00  0.00  0.03  0.00
  HS02004799HS02004480    1.00   0.00  0.01  0.00  0.96  0.00  0.02  0.00  0.00  0.00
  HS02004792HS02004799    1.00   0.00  0.00  0.00  0.99  0.01  0.00  0.00  0.98  0.00
  HS02004788HS02004792    1.00   0.00  0.00  0.00  0.99  0.01  0.00  0.00  0.98  0.00
  HS02004785HS02004788    1.00   0.00  0.00  0.00  1.00  0.00  0.00  0.00  0.00  0.00
  HS02004777HS02004785    1.00   0.00  0.00  0.00  1.00  0.00  0.00  0.00  0.14  0.00
  HS02004480HS02004478    1.00   0.03  0.00  0.00  0.65  0.00  0.00  0.32  0.00  0.00
  HS02004479HS02004480    1.00   0.02  0.00  0.00  0.98  0.00  0.00  0.00  0.13  0.00
  HS02004862HS02004870    1.00   0.00  0.00  0.00  1.00  0.00  0.00  0.00  0.05  0.00
  HS02004848HS02004852    1.00   0.03  0.00  0.00  0.97  0.00  0.00  0.00  0.61  0.00
  HS02004856HS02004862    1.00   0.00  0.04  0.00  0.96  0.00  0.00  0.00  0.80  0.00
  HS02004852HS02004856    1.00   0.03  0.00  0.00  0.96  0.00  0.00  0.00  0.85  0.00
  HS02004802HS02004478    1.00   0.03  0.00  0.00  0.96  0.00  0.00  0.00  0.03  0.00
  HS02004478WS02006287    1.00   0.04  0.00  0.00  0.72  0.24  0.00  0.00  0.66  0.00
  HS02004817HS02004807    1.00   0.00  0.03  0.00  0.97  0.00  0.00  0.00  0.01  0.00
  HS02004807HS02004802    1.00   0.03  0.00  0.00  0.96  0.00  0.00  0.00  0.00  0.00
  YS02001759YS02001757    1.00   0.00  0.00  0.00  1.00  0.00  0.00  0.00  0.16  0.00
  YS02001762YS02001759    1.00   0.00  0.00  0.00  1.00  0.00  0.00  0.00  0.04  0.00
  YS02001765YS02001762    1.00   0.00  0.00  0.00  1.00  0.00  0.00  0.00  0.16  0.00
  YS02001770YS02001767    1.00   0.00  0.00  0.00  1.00  0.00  0.00  0.00  0.00  0.00
  YS02001774YS02001770    1.00   0.00  0.03  0.00  0.97  0.00  0.00  0.00  0.04  0.00
  YS02001779YS02001774    1.00   0.00  0.00  0.00  1.00  0.00  0.00  0.00  0.21  0.00
  YS02001649YS02001757    1.00   0.00  0.00  0.00  1.00  0.00  0.00  0.00  0.17  0.00
  YS02001767YS02001765    1.00   0.00  0.00  0.00  1.00  0.00  0.00  0.00  0.00  0.00
  YS02006561YS02001783    1.00   0.05  0.00  0.00  0.34  0.61  0.00  0.00  0.52  0.00
  YS02001783YS02001784    1.00   0.00  0.05  0.00  0.95  0.00  0.00  0.00  0.01  0.00
  YS02001784YS02001785    1.00   0.00  0.00  0.00  1.00  0.00  0.00  0.00  0.20  0.00
  YS02001788YS02001790    1.00   0.00  0.00  0.00  0.40  0.60  0.00  0.00  0.50  0.00
  YS02001790YS02001791    1.00   0.00  0.00  0.00  0.39  0.61  0.00  0.00  0.44  0.00
  YS02001791YS02001793    1.00   0.00  0.00  0.00  0.43  0.57  0.00  0.00  0.04  0.00
  YS02001910YS02001907    1.00   0.00  0.00  0.00  0.98  0.00  0.00  0.02  0.13  0.00
  YS02001786YS02001788    1.00   0.00  0.00  0.00  0.37  0.63  0.00  0.00  0.00  0.00
  YS02001915YS02001910    1.00   0.00  0.00  0.00  0.99  0.01  0.00  0.00  0.18  0.00
  YS02001918YS02001915    1.00   0.00  0.01  0.00  0.99  0.00  0.00  0.00  0.58  0.00
  YS02001923YS02001920    1.00   0.00  0.00  0.00  1.00  0.00  0.00  0.00  0.86  0.00
  YS02001926YS02001923    1.00   0.00  0.02  0.00  0.14  0.00  0.84  0.00  0.00  0.00
  YS02001929YS02001926    1.00   0.00  0.03  0.00  0.97  0.00  0.00  0.00  0.79  0.00
  YS02001920YS02001918    1.00   0.00  0.01  0.00  0.99  0.00  0.00  0.00  0.00  0.00
  YS02001629YS02163301    1.00   0.04  0.00  0.00  0.96  0.00  0.00  0.00  0.00  0.00
  YS02001619YS02001622    1.00   0.03  0.00  0.00  0.97  0.00  0.00  0.00  0.00  0.00
  YS02001622YS02001625    1.00   0.03  0.00  0.00  0.97  0.00  0.00  0.00  0.07  0.00
  YS02001625YS02001629    1.00   0.03  0.01  0.00  0.94  0.00  0.02  0.00  0.00  0.00
  YS02163301YS02001633    1.00   0.00  0.04  0.00  0.96  0.00  0.00  0.00  0.00  0.00
  YS02163601YS02164001    1.00   0.00  0.03  0.00  0.97  0.00  0.00  0.00  0.00  0.00
  YS02164001YS02001641    1.00   0.01  0.01  0.00  0.97  0.00  0.00  0.00  0.06  0.00
  YS02001641YS02001644    1.00   0.00  0.01  0.00  0.99  0.00  0.00  0.00  0.00  0.00
  YS02001647YS02001649    1.00   0.00  0.04  0.00  0.96  0.00  0.00  0.00  0.01  0.00
  YS02006553YS02006556    1.00   0.01  0.00  0.00  0.99  0.00  0.00  0.00  0.03  0.00
  YS02006556YS02006558    1.00   0.00  0.00  0.00  1.00  0.00  0.00  0.00  0.00  0.00
  YSB6556YSB1171          1.00   0.02  0.01  0.00  0.97  0.00  0.00  0.00  0.00  0.00
  YS02001907YS02006553    1.00   0.00  0.01  0.00  0.98  0.00  0.00  0.00  0.00  0.00
  YS02006558YS02006561    1.00   0.05  0.00  0.00  0.16  0.79  0.00  0.00  0.47  0.00
  YS02001633YS02163601    1.00   0.00  0.01  0.00  0.99  0.00  0.00  0.00  0.16  0.00
  YS02001644YS02001647    1.00   0.00  0.04  0.00  0.96  0.00  0.00  0.00  0.00  0.00
  YS02001745YS02001748    1.00   0.00  0.00  0.00  0.89  0.01  0.00  0.10  0.06  0.00
  YS02001748YS02001751    1.00   0.00  0.00  0.00  0.97  0.03  0.00  0.00  0.15  0.00
  YS02001751YS02001754    1.00   0.00  0.00  0.00  0.95  0.00  0.00  0.05  0.02  0.00
  YS02001754YS02001757    1.00   0.00  0.00  0.00  0.99  0.01  0.00  0.00  0.20  0.00
  YS02001882YS02001884    1.00   0.04  0.00  0.00  0.96  0.00  0.00  0.00  0.00  0.00
  YS02001884YS02001887    1.00   0.02  0.01  0.00  0.97  0.00  0.00  0.00  0.00  0.00
  YS02001890YS02001895    1.00   0.00  0.04  0.00  0.96  0.00  0.00  0.00  0.00  0.00
  YS02001895YS02001898    1.00   0.04  0.00  0.00  0.95  0.00  0.01  0.00  0.00  0.00
  YS02001898YS02001901    1.00   0.04  0.00  0.00  0.96  0.00  0.00  0.00  0.02  0.00
  YS02001901YS02001904    1.00   0.04  0.00  0.00  0.96  0.00  0.00  0.00  0.00  0.00
  YS02001904YS02001907    1.00   0.00  0.04  0.00  0.96  0.00  0.00  0.00  0.00  0.00
  YS02001887YS02001890    1.00   0.00  0.00  0.00  0.98  0.00  0.01  0.00  0.00  0.00
  YS02001652YS02001649    1.00   0.00  0.00  0.00  1.00  0.00  0.00  0.00  0.18  0.00
  YS02001655YS02001652    1.00   0.00  0.00  0.00  0.95  0.00  0.00  0.05  0.02  0.00
  YS02001658YS02001655    1.00   0.00  0.04  0.00  0.94  0.03  0.00  0.00  0.11  0.00
  YS02001661YS02001658    1.00   0.04  0.00  0.00  0.89  0.07  0.00  0.00  0.06  0.00
  YS02001664YS02001661    1.00   0.03  0.00  0.00  0.85  0.12  0.00  0.00  0.23  0.00
  YSB1154YSB6556          1.00   0.03  0.00  0.00  0.97  0.00  0.00  0.00  0.02  0.00
  YSB1174YSB1171          1.00   0.02  0.01  0.00  0.97  0.00  0.00  0.00  0.00  0.00
  YSB1171HS02004479       1.00   0.02  0.00  0.00  0.98  0.00  0.00  0.00  0.11  0.00
  HS02004881HS02006253    1.00   0.02  0.00  0.00  0.88  0.00  0.00  0.09  0.70  0.00
  YS02001793JiankangQianchi    1.00   0.00  0.00  0.00  0.61  0.39  0.00  0.00  0.16  0.00
  YS02001757CaochengTiaoxuchi    1.00   0.00  0.06  0.00  0.91  0.03  0.00  0.00  0.00  0.00
  WSF200WS02003060        1.00   0.00  0.05  0.00  0.75  0.20  0.00  0.00  0.18  0.00
  1                       1.00   0.00  0.00  0.00  0.00  1.00  0.00  0.00  0.33  0.00
  2                       1.00   0.46  0.00  0.00  0.00  0.54  0.00  0.00  0.09  0.00
  3                       1.00   0.09  0.00  0.00  0.00  0.91  0.00  0.00  0.04  0.00
  4                       1.00   1.00  0.00  0.00  0.00  0.00  0.00  0.00  0.00  0.00
  
  
  *************************
  Conduit Surcharge Summary
  *************************
  
  ----------------------------------------------------------------------------
                                                           Hours        Hours 
                         --------- Hours Full --------   Above Full   Capacity
  Conduit                Both Ends  Upstream  Dnstream   Normal Flow   Limited
  ----------------------------------------------------------------------------
  WS02006229WS02006228        2.83      3.13      2.83      5.41         2.82
  WS02006256WS02006235        6.06      6.06      7.43      2.63         0.01
  WS02006253WS02006251        0.01      0.01      0.53      0.01         0.01
  WS02006252WS02006251        1.80      1.80      2.95      2.65         0.01
  WS02006251WS02006249        0.01      0.01      0.01      1.90         0.01
  WS02006249WS02006248        0.01      0.01      0.01      5.40         0.01
  WS02006248WS02006247        0.01      0.01      0.28      0.01         0.01
  WS02006247WS02006245        0.01      0.50      0.01      5.50         0.01
  WS02006245WS02006243        0.44      0.44      0.75      0.01         0.01
  WS02006243WS02006242        0.82      0.82      2.20      0.01         0.01
  WS02006242WS02006240        1.13      1.13      2.81      2.91         0.01
  WS02006240WS02006239        1.56      1.56      1.68      0.05         0.01
  WS02006239WS02006238        2.65      2.65      2.84      0.10         0.08
  WS02006238WS02006235        2.66      2.66      3.15      0.01         0.01
  WS02006235WS02006234        1.17      1.17      2.31      6.09         0.01
  WS02006234WS02006232        1.74      1.74      3.23      0.01         0.01
  WS02006232WS02006231        0.96      0.96      3.23      0.01         0.01
  WS02006231WS02006230        0.85      0.85      0.99      6.05         0.01
  WS02006230WS02006229        3.95      5.28      3.95      6.12         3.95
  WS02006228WS02006109        2.97      3.61      2.97      5.67         2.97
  WS02006112WS02006115        0.01      0.01      1.26      0.01         0.01
  WS02006111WS02006112        0.01      0.01      5.40      0.01         0.01
  WS02006110WS02006113        0.01      0.01      3.31      0.01         0.01
  WS02006109WS02006110        1.14      1.14      3.61      1.15         0.01
  WS02004406WS02004407        0.01      0.01      0.56      0.01         0.01
  WS02004405WS02004406        0.56      0.76      0.56      1.20         0.56
  WS02004404WS02004405        0.76      0.86      0.76      6.00         0.76
  WS02004403WS02004404        0.01      0.01      0.86      0.01         0.01
  WS02004402WS02004403        0.01      0.01      0.01      0.01         0.01
  WS02003072WS02003073        0.01      0.01      0.01      5.50         0.01
  HS02004480HS02004478        0.01      0.01      0.01      0.25         0.01
  YS02001759YS02001757        5.66      5.66      5.74      0.01         0.01
  YS02001762YS02001759        5.64      5.64      5.66      0.01         0.01
  YS02001765YS02001762        5.61      5.61      5.64      0.01         0.01
  YS02001770YS02001767        5.58      5.58      5.58      0.39         0.90
  YS02001774YS02001770        5.51      5.51      5.63      0.01         0.01
  YS02001779YS02001774        5.36      5.36      5.63      0.01         0.01
  YS02001649YS02001757        5.64      5.64      5.74      0.01         0.01
  YS02001767YS02001765        5.58      5.58      5.61      0.01         0.01
  YS02006561YS02001783        0.63      0.63      1.13      0.01         0.01
  YS02001783YS02001784        1.13      1.13      1.18      1.16         0.93
  YS02001784YS02001785        1.13      1.18      1.13      2.08         1.13
  YS02001788YS02001790        1.13      1.13      1.87      0.01         0.01
  YS02001790YS02001791        1.87      1.87      1.96      0.47         0.46
  YS02001791YS02001793        1.96      1.96      2.42      0.01         0.01
  YS02001910YS02001907        0.95      0.95      1.49      0.01         0.01
  YS02001786YS02001788        1.13      1.13      1.13      1.71         1.12
  YS02001915YS02001910        0.74      0.74      0.95      0.01         0.01
  YS02001918YS02001915        0.50      0.50      0.74      0.01         0.01
  YS02001923YS02001920        0.26      0.26      0.54      0.01         0.01
  YS02001920YS02001918        0.50      0.50      0.54      0.01         0.01
  YS02001629YS02163301        5.52      5.52      5.58      0.01         0.01
  YS02001619YS02001622        5.17      5.17      5.21      0.01         0.01
  YS02001622YS02001625        5.21      5.21      5.40      0.01         0.01
  YS02001625YS02001629        5.17      5.17      5.40      0.01         0.01
  YS02163301YS02001633        5.58      5.58      5.61      0.01         0.01
  YS02163601YS02164001        5.61      5.61      5.64      0.01         0.01
  YS02164001YS02001641        5.61      5.61      5.62      0.01         0.02
  YS02001641YS02001644        5.62      5.62      5.62      1.21         1.39
  YS02001647YS02001649        5.40      5.40      5.64      0.01         0.01
  YS02006553YS02006556        1.19      1.19      1.57      0.01         0.01
  YS02006556YS02006558        1.37      1.37      1.63      0.01         0.01
  YS02001907YS02006553        2.09      2.09      2.30      0.01         0.01
  YS02006558YS02006561        0.85      1.15      0.85      1.94         0.85
  YS02001633YS02163601        5.60      5.60      5.64      0.01         0.01
  YS02001644YS02001647        5.40      5.40      5.62      0.01         0.01
  YS02001745YS02001748        0.01      0.01      5.02      0.01         0.01
  YS02001748YS02001751        5.06      5.06      5.14      0.01         0.01
  YS02001751YS02001754        5.14      5.14      5.37      0.01         0.01
  YS02001754YS02001757        5.40      5.40      5.74      0.01         0.01
  YS02001882YS02001884        0.75      0.75      0.79      0.01         0.01
  YS02001884YS02001887        0.84      0.84      0.87      0.01         0.01
  YS02001890YS02001895        0.73      0.73      0.98      0.01         0.01
  YS02001895YS02001898        0.71      0.71      0.73      0.01         0.01
  YS02001898YS02001901        0.74      0.74      0.84      0.01         0.01
  YS02001901YS02001904        0.81      0.81      0.84      0.01         0.01
  YS02001904YS02001907        0.81      0.81      1.58      0.01         0.01
  YS02001887YS02001890        0.90      0.90      0.94      0.01         0.01
  YS02001652YS02001649        5.40      5.40      5.64      0.01         0.01
  YS02001655YS02001652        5.18      5.18      5.39      0.01         0.01
  YS02001658YS02001655        5.04      5.04      5.18      0.01         0.01
  YS02001661YS02001658        0.20      0.20      5.04      0.01         0.01
  YS02001664YS02001661        0.01      0.01      1.09      0.01         0.01
  YS02001793JiankangQianchi        2.30      2.30      3.41      0.01         0.01
  YS02001757CaochengTiaoxuchi        4.82      4.82      5.74      0.01         0.01
  3                           0.01      0.01      0.01      0.01         0.01
  
  
  ***************
  Pumping Summary
  ***************
  
  ---------------------------------------------------------------------------------------------------------
                                                  Min       Avg       Max     Total     Power    % Time Off
                        Percent   Number of      Flow      Flow      Flow    Volume     Usage    Pump Curve
  Pump                 Utilized   Start-Ups       LPS       LPS       LPS  10^6 ltr     Kw-hr    Low   High
  ---------------------------------------------------------------------------------------------------------
  CC-Pump-1               60.92           2      0.00    168.33    200.00     2.893      4.88    0.0   14.2
  CC-Pump-2               67.30           6      0.00    146.13    200.00     2.801      4.71    0.0   12.8
  JK-Pump-1               91.49           4      0.00    192.78    300.00     4.005     45.97    0.0    0.0
  JK-Pump-2               80.84           7      0.00    182.95    300.00     3.236     39.99    0.0    0.0
  XR-Pump-1               93.60           9      0.00     74.26     95.00     1.938     15.69    0.0    0.0
  XR-Pump-2               80.84           7      0.00     71.79     95.00     1.653     13.96    0.0    0.0
  XR-Pump-3               78.71           7      0.00     72.36     95.00     1.567     11.02    0.0    0.0
  XR-Pump-4               82.95           8      0.00     72.67     95.00     1.653     13.30    0.0    0.0
  

  Analysis begun on:  Wed Dec 22 17:23:35 2021
  Analysis ended on:  Wed Dec 22 17:23:40 2021
  Total elapsed time: 00:00:05