
  EPA STORM WATER MANAGEMENT MODEL - VERSION 5.1 (Build 5.3.0.dev0)
  --------------------------------------------------------------

  WARNING 04: minimum elevation drop used for Conduit WS02004404WS02004405
  WARNING 03: negative offset ignored for Link YS02001904YS02001907
  
  *********************************************************
  NOTE: The summary statistics displayed in this report are
  based on results found at every computational time step,  
  not just on results from each reporting time step.
  *********************************************************
  
  ****************
  Analysis Options
  ****************
  Flow Units ............... LPS
  Process Models:
    Rainfall/Runoff ........ YES
    RDII ................... NO
    Snowmelt ............... NO
    Groundwater ............ NO
    Flow Routing ........... YES
    Ponding Allowed ........ NO
    Water Quality .......... NO
  Infiltration Method ...... HORTON
  Flow Routing Method ...... DYNWAVE
  Surcharge Method ......... EXTRAN
  Starting Date ............ 08/28/2015 08:00:00
  Ending Date .............. 08/28/2015 15:50:00
  Antecedent Dry Days ...... 8.0
  Report Time Step ......... 00:01:00
  Wet Time Step ............ 00:01:00
  Dry Time Step ............ 00:01:00
  Routing Time Step ........ 5.00 sec
  Variable Time Step ....... YES
  Maximum Trials ........... 8
  Number of Threads ........ 4
  Head Tolerance ........... 0.001500 m
  
  
  **************************        Volume         Depth
  Runoff Quantity Continuity     hectare-m            mm
  **************************     ---------       -------
  Total Precipitation ......         7.641        16.729
  Evaporation Loss .........         0.000         0.000
  Infiltration Loss ........         1.880         4.117
  Surface Runoff ...........         4.668        10.221
  Final Storage ............         1.093         2.393
  Continuity Error (%) .....        -0.013
  
  
  **************************        Volume        Volume
  Flow Routing Continuity        hectare-m      10^6 ltr
  **************************     ---------     ---------
  Dry Weather Inflow .......         0.616         6.165
  Wet Weather Inflow .......         4.667        46.671
  Groundwater Inflow .......         0.000         0.000
  RDII Inflow ..............         0.000         0.000
  External Inflow ..........         0.102         1.024
  External Outflow .........         2.304        23.039
  Flooding Loss ............         2.648        26.480
  Evaporation Loss .........         0.000         0.000
  Exfiltration Loss ........         0.000         0.000
  Initial Stored Volume ....         0.076         0.761
  Final Stored Volume ......         0.613         6.133
  Continuity Error (%) .....        -1.890
  
  
  *************************
  Highest Continuity Errors
  *************************
  Node HS02004842 (12.71%)
  Node YS02001884 (9.18%)
  Node JK-storage (-8.74%)
  Node HS02004817 (2.32%)
  Node YSB1171 (2.18%)
  
  
  ***************************
  Time-Step Critical Elements
  ***************************
  Link 3 (51.56%)
  Link WS02006252WS02006251 (36.73%)
  Link WS02006238WS02006235 (4.26%)
  Link 2 (1.47%)
  
  
  ********************************
  Highest Flow Instability Indexes
  ********************************
  Link YS02163301YS02001633 (44)
  Link YS02163601YS02164001 (44)
  Link YS02001629YS02163301 (43)
  Link YS02001619YS02001622 (42)
  Link YS02164001YS02001641 (41)
  
  
  *************************
  Routing Time Step Summary
  *************************
  Minimum Time Step           :     0.39 sec
  Average Time Step           :     0.75 sec
  Maximum Time Step           :     5.00 sec
  Percent in Steady State     :     0.00
  Average Iterations per Step :     4.80
  Percent Not Converging      :    22.03
  
  
  ***************************
  Subcatchment Runoff Summary
  ***************************
  
  ------------------------------------------------------------------------------------------------------------------------------
                            Total      Total      Total      Total     Imperv       Perv      Total       Total     Peak  Runoff
                           Precip      Runon       Evap      Infil     Runoff     Runoff     Runoff      Runoff   Runoff   Coeff
  Subcatchment                 mm         mm         mm         mm         mm         mm         mm    10^6 ltr      LPS
  ------------------------------------------------------------------------------------------------------------------------------
  sub0                      16.73       0.00       0.00       0.97      14.29       0.20      14.50        0.01     3.66   0.867
  sub1                      16.73       0.00       0.00       1.58      13.63       0.26      13.89        0.09    24.51   0.830
  sub2                      16.73       0.00       0.00       5.80       9.63       0.39      10.02        0.09    22.91   0.599
  sub3                      16.73       0.00       0.00       5.88       9.59       0.31       9.90        0.22    50.49   0.592
  sub4                      16.73       0.00       0.00       1.65      13.47       0.19      13.66        0.28    60.01   0.817
  sub5                      16.73       0.00       0.00       0.99      14.24       0.18      14.42        0.16    43.61   0.862
  sub7                      16.73       0.00       0.00       1.26      13.97       0.24      14.21        0.05    13.82   0.849
  sub8                      16.73       0.00       0.00       1.27      13.96       0.23      14.19        0.09    25.44   0.848
  sub9                      16.73       0.00       0.00       1.27      13.96       0.23      14.19        0.07    19.02   0.848
  sub10                     16.73       0.00       0.00       1.13      14.10       0.21      14.30        0.16    42.73   0.855
  sub11                     16.73       0.00       0.00       1.12      14.11       0.21      14.33        0.17    47.25   0.857
  sub12                     16.73       0.00       0.00       1.83      13.37       0.35      13.71        0.12    35.87   0.820
  sub14                     16.73       0.00       0.00       1.27      13.95       0.23      14.19        0.14    37.43   0.848
  sub15                     16.73       0.00       0.00       4.53      10.73       0.49      11.22        0.19    51.47   0.671
  sub16                     16.73       0.00       0.00       4.88      10.29       0.64      10.93        0.11    32.57   0.653
  sub17                     16.73       0.00       0.00       4.74      10.44       0.61      11.05        0.09    26.81   0.661
  sub22                     16.73       0.00       0.00       6.60       8.75       0.59       9.34        0.59   160.16   0.558
  sub23                     16.73       0.00       0.00       5.59       9.67       0.60      10.27        0.49   134.74   0.614
  sub60                     16.73       0.00       0.00       1.94      11.65       0.06      11.71        3.55   386.89   0.700
  sub61                     16.73       0.00       0.00       2.75      11.65       0.09      11.73        3.62   476.87   0.701
  sub62                     16.73       0.00       0.00       1.26      12.72       0.07      12.79        3.93   491.27   0.765
  sub63                     16.73       0.00       0.00       4.75      10.14       0.10      10.23        3.10   437.54   0.612
  sub64                     16.73       0.00       0.00       2.45      11.19       0.06      11.26        3.42   367.58   0.673
  sub65                     16.73       0.00       0.00       2.11      11.40       0.06      11.46        3.52   372.98   0.685
  sub66                     16.73       0.00       0.00       4.79       9.55       0.06       9.61        2.95   336.52   0.575
  sub67                     16.73       0.00       0.00       1.24      13.25       0.09      13.35        4.12   605.48   0.798
  sub68                     16.73       0.00       0.00       2.25      12.20       0.10      12.30        3.78   521.64   0.735
  sub69                     16.73       0.00       0.00       2.37      12.50       0.14      12.64        2.95   482.20   0.755
  sub70                     16.73      12.90       0.00       8.98      17.16       1.09      18.25        4.18   460.88   0.616
  sub71                     16.73       0.00       0.00       1.27      12.46       0.07      12.53        2.96   345.19   0.749
  sub72                     16.73       0.00       0.00       1.14      10.39       0.03      10.43        2.12   185.81   0.623
  sub73                     16.73      17.77       0.00       9.78      19.72       1.38      21.10        4.96   482.28   0.612
  sub74                     16.73       0.00       0.00      12.48       3.71       0.07       3.78        1.51   261.10   0.226
  
  
  ******************
  Node Depth Summary
  ******************
  
  ---------------------------------------------------------------------------------
                                 Average  Maximum  Maximum  Time of Max    Reported
                                   Depth    Depth      HGL   Occurrence   Max Depth
  Node                 Type       Meters   Meters   Meters  days hr:min      Meters
  ---------------------------------------------------------------------------------
  WS02001211           JUNCTION     0.67     0.80     5.64     0  03:10        0.80
  WS02001212           JUNCTION     0.40     0.52     5.58     0  02:21        0.52
  WS02001213           JUNCTION     0.64     0.79     5.55     0  02:22        0.79
  WS02003069           JUNCTION     0.47     0.63     5.22     0  02:23        0.63
  WS02003072           JUNCTION     0.53     0.69     5.06     0  02:23        0.69
  WS02003073           JUNCTION     0.32     0.43     4.49     0  02:24        0.43
  WS02003060           JUNCTION     0.42     0.56     5.49     0  02:22        0.56
  WS02003066           JUNCTION     0.25     0.36     5.92     0  01:57        0.36
  WS02003059           JUNCTION     0.70     0.84     5.53     0  02:22        0.84
  WS02003067           JUNCTION     0.61     0.79     6.11     0  01:57        0.79
  WS02004401           JUNCTION     0.74     1.13     7.13     0  01:55        1.13
  WS02004402           JUNCTION     0.77     1.13     7.09     0  01:55        1.13
  WS02004403           JUNCTION     0.79     1.11     7.04     0  01:55        1.11
  WS02004404           JUNCTION     0.86     1.17     7.02     0  01:55        1.17
  WS02004406           JUNCTION     0.86     1.11     6.94     0  01:55        1.11
  WS02004409           JUNCTION     0.55     0.87     6.64     0  01:57        0.87
  WS02004410           JUNCTION     0.57     0.87     6.59     0  01:57        0.86
  WS02004411           JUNCTION     0.58     0.86     6.54     0  01:57        0.86
  WS02004412           JUNCTION     0.59     0.84     6.48     0  01:57        0.84
  WS02004413           JUNCTION     0.75     0.98     6.45     0  01:57        0.98
  WS02004405           JUNCTION     0.85     1.15     7.00     0  01:55        1.15
  WS02006109           JUNCTION     0.83     1.29     7.91     0  01:55        1.28
  WS02006110           JUNCTION     0.81     1.13     7.71     0  01:55        1.13
  WS02006111           JUNCTION     0.26     0.64     7.35     0  01:55        0.64
  WS02006112           JUNCTION     0.92     1.41     7.29     0  01:55        1.41
  WS02006113           JUNCTION     0.38     0.63     7.53     0  01:55        0.63
  WS02006115           JUNCTION     0.64     1.08     7.22     0  01:55        1.08
  WS02006116           JUNCTION     0.72     1.14     7.18     0  01:55        1.14
  WS02006230           JUNCTION     0.84     1.83     8.57     0  01:43        1.41
  WS02006231           JUNCTION     0.57     1.74     8.86     0  01:43        1.04
  WS02006232           JUNCTION     0.71     1.35     8.39     0  01:43        1.13
  WS02006234           JUNCTION     0.63     1.36     8.52     0  01:43        1.02
  WS02006235           JUNCTION     0.66     1.34     8.50     0  01:43        1.03
  WS02006238           JUNCTION     0.68     1.41     8.55     0  01:43        1.05
  WS02006240           JUNCTION     0.59     1.68     8.98     0  01:43        0.93
  WS02006242           JUNCTION     0.64     1.55     8.82     0  01:43        0.98
  WS02006243           JUNCTION     0.52     1.48     8.90     0  01:43        0.84
  WS02006245           JUNCTION     0.50     1.56     9.04     0  01:43        0.80
  WS02006247           JUNCTION     0.51     1.47     8.97     0  01:43        0.79
  WS02006248           JUNCTION     0.45     1.07     8.66     0  01:44        0.71
  WS02006249           JUNCTION     0.48     0.71     8.31     0  01:55        0.71
  WS02006239           JUNCTION     0.64     1.63     8.84     0  01:43        1.00
  WS02006251           JUNCTION     0.48     0.82     8.49     0  01:55        0.82
  WS02006252           JUNCTION     0.41     0.59     8.84     0  02:34        0.59
  WS02006253           JUNCTION     0.50     0.85     8.49     0  01:55        0.85
  WS02006256           JUNCTION     1.09     1.20     8.14     0  04:20        1.20
  WS02004138           JUNCTION     0.15     0.19     7.44     0  01:20        0.19
  WS02004407           JUNCTION     0.25     0.37     6.68     0  01:56        0.37
  WS02006228           JUNCTION     0.85     1.41     8.06     0  01:55        1.41
  WS02006229           JUNCTION     0.84     1.45     8.14     0  01:55        1.45
  WS02006280           JUNCTION     0.08     0.25     8.52     0  01:55        0.25
  WS02006284           JUNCTION     0.39     0.64     9.04     0  01:55        0.64
  WS02006287           JUNCTION     0.12     0.38     9.33     0  01:54        0.38
  WSF200               JUNCTION     0.25     0.39     5.63     0  01:56        0.39
  HS02004901           JUNCTION     0.14     0.36    10.18     0  01:52        0.36
  HS02004881           JUNCTION     0.01     0.05     9.08     0  01:54        0.05
  HS02004876           JUNCTION     0.05     0.16     9.19     0  01:55        0.16
  HS02004870           JUNCTION     0.02     0.09     9.38     0  01:55        0.09
  HS02004862           JUNCTION     0.03     0.11     9.49     0  01:55        0.11
  HS02004856           JUNCTION     0.08     0.15     9.58     0  01:55        0.15
  HS02004852           JUNCTION     0.02     0.07     9.59     0  01:55        0.07
  HS02004848           JUNCTION     0.01     0.07     9.67     0  01:55        0.07
  HS02004842           JUNCTION     0.34     0.40     9.67     0  01:55        0.40
  HS02004837           JUNCTION     0.03     0.09     9.67     0  01:55        0.09
  HS02004830           JUNCTION     0.05     0.10     9.57     0  01:56        0.10
  HS02004824           JUNCTION     0.03     0.12     9.53     0  01:55        0.12
  HS02004817           JUNCTION     0.46     0.69     9.53     0  01:55        0.69
  HS02004807           JUNCTION     0.14     0.36     9.53     0  01:55        0.36
  HS02004802           JUNCTION     0.18     0.39     9.52     0  01:55        0.39
  HS02004799           JUNCTION     0.14     0.45     9.66     0  01:53        0.45
  HS02004792           JUNCTION     0.05     0.20     9.73     0  01:52        0.20
  HS02004788           JUNCTION     0.04     0.15    10.05     0  01:53        0.15
  HS02004785           JUNCTION     0.06     0.23    10.14     0  01:52        0.23
  HS02004777           JUNCTION     0.16     0.37    10.17     0  01:52        0.37
  HS02004770           JUNCTION     0.13     0.35    10.18     0  01:52        0.35
  HS02004480           JUNCTION     0.10     0.37     9.61     0  01:53        0.37
  HS02004479           JUNCTION     0.14     0.41     9.61     0  01:53        0.41
  HS02004478           JUNCTION     0.08     0.27     9.50     0  01:54        0.27
  YS02001745           JUNCTION     0.77     0.92     8.44     0  02:59        0.92
  YS02001748           JUNCTION     1.17     1.52     8.59     0  01:50        1.35
  YS02001751           JUNCTION     1.35     2.02     8.90     0  01:48        1.56
  YS02001754           JUNCTION     1.61     1.95     8.56     0  01:48        1.82
  YS02001762           JUNCTION     1.81     2.04     8.44     0  02:53        2.03
  YS02001765           JUNCTION     1.76     1.99     8.44     0  02:59        1.98
  YS02001767           JUNCTION     1.73     1.95     8.44     0  02:54        1.93
  YS02001770           JUNCTION     1.72     1.93     8.42     0  02:57        1.92
  YS02001774           JUNCTION     1.79     2.00     8.43     0  01:47        1.98
  YS02001779           JUNCTION     1.53     1.68     8.37     0  01:47        1.68
  YS02001882           JUNCTION     0.70     1.67     8.38     0  01:58        1.62
  YS02001884           JUNCTION     0.79     1.76     8.37     0  01:58        1.73
  YS02001759           JUNCTION     1.84     2.08     8.44     0  02:59        2.07
  YS02001887           JUNCTION     0.87     1.82     8.36     0  01:58        1.80
  YS02001890           JUNCTION     0.90     1.81     8.32     0  01:58        1.81
  YS02001898           JUNCTION     0.66     1.57     8.31     0  01:58        1.56
  YS02001901           JUNCTION     0.78     1.68     8.29     0  01:58        1.67
  YS02001904           JUNCTION     0.76     1.64     8.27     0  01:58        1.63
  YS02001907           JUNCTION     1.09     1.96     8.25     0  01:58        1.96
  YS02001910           JUNCTION     0.88     1.81     8.32     0  01:59        1.79
  YS02001915           JUNCTION     0.68     1.64     8.36     0  01:59        1.61
  YS02001918           JUNCTION     0.42     1.37     8.44     0  01:59        1.31
  YS02001619           JUNCTION     1.32     1.61     8.54     0  01:48        1.48
  YS02001629           JUNCTION     1.67     1.85     8.40     0  01:48        1.84
  YS02001641           JUNCTION     1.77     1.94     8.37     0  02:19        1.93
  YS02001644           JUNCTION     1.77     1.92     8.35     0  01:50        1.92
  YS02001652           JUNCTION     1.62     2.16     8.76     0  01:55        1.94
  YS02001655           JUNCTION     1.38     2.20     9.05     0  02:24        1.76
  YS02001920           JUNCTION     0.52     1.47     8.48     0  01:59        1.39
  YS02001923           JUNCTION     0.35     1.25     8.51     0  01:59        1.16
  YS02001926           JUNCTION     0.37     1.27     8.72     0  01:59        0.97
  YS02001929           JUNCTION     0.23     0.83     8.53     0  01:59        0.71
  YS02001658           JUNCTION     1.11     2.27     9.41     0  02:23        1.56
  YS02001661           JUNCTION     0.88     2.46     9.86     0  02:24        1.45
  YS02001664           JUNCTION     0.39     0.57     8.49     0  03:46        0.56
  YS02001622           JUNCTION     1.34     1.62     8.52     0  01:47        1.50
  YS02001633           JUNCTION     1.77     1.94     8.40     0  02:40        1.94
  YS02001649           JUNCTION     1.82     2.05     8.44     0  01:54        2.05
  YS02001757           JUNCTION     1.94     2.18     8.44     0  02:50        2.17
  YS02001895           JUNCTION     0.66     1.57     8.31     0  02:07        1.56
  YS02001625           JUNCTION     1.62     1.78     8.38     0  01:46        1.78
  YS02163301           JUNCTION     1.70     1.90     8.42     0  01:48        1.88
  YS02163601           JUNCTION     1.81     1.99     8.39     0  01:50        1.99
  YS02164001           JUNCTION     1.75     1.92     8.38     0  01:50        1.91
  YS02001647           JUNCTION     1.60     1.81     8.42     0  02:11        1.79
  YSB1154              JUNCTION     0.28     0.56     9.62     0  01:53        0.56
  YSB6556              JUNCTION     0.17     0.44     9.61     0  01:53        0.44
  YSB1174              JUNCTION     0.23     0.50     9.61     0  01:53        0.50
  YSB1171              JUNCTION     0.43     0.71     9.61     0  01:53        0.71
  YS02006553           JUNCTION     1.09     2.19     8.47     0  01:58        1.96
  YS02006561           JUNCTION     0.42     1.95     8.61     0  01:58        1.08
  YS02006556           JUNCTION     1.05     2.39     8.70     0  01:58        1.92
  YS02006558           JUNCTION     1.09     2.50     8.77     0  01:58        1.97
  YS02001783           JUNCTION     0.68     2.40     8.54     0  01:58        1.47
  YS02001784           JUNCTION     0.69     2.12     8.19     0  01:58        1.41
  YS02001786           JUNCTION     0.63     2.16     8.19     0  01:58        1.26
  YS02001788           JUNCTION     0.56     2.28     8.26     0  01:58        1.13
  YS02001790           JUNCTION     0.71     1.96     7.60     0  01:57        1.29
  YS02001791           JUNCTION     0.71     2.39     7.86     0  01:57        1.28
  YS02001793           JUNCTION     1.01     2.04     6.87     0  01:57        1.80
  WS02004139           JUNCTION     0.61     0.74     5.65     0  03:10        0.74
  WSC                  OUTFALL      0.32     0.43     1.10     0  02:24        0.43
  3                    OUTFALL      0.12     0.20     6.20     0  04:20        0.20
  4                    OUTFALL      0.05     0.21     7.21     0  01:55        0.21
  5                    OUTFALL      0.00     0.00     5.00     0  00:00        0.00
  JK-storage           STORAGE      3.38     5.80     6.60     0  01:58        5.80
  CC-storage           STORAGE      1.15     1.39     8.39     0  02:55        1.39
  XR-storage           STORAGE      7.33     7.72     5.72     0  02:02        7.72
  
  
  *******************
  Node Inflow Summary
  *******************
  
  -------------------------------------------------------------------------------------------------
                                  Maximum  Maximum                  Lateral       Total        Flow
                                  Lateral    Total  Time of Max      Inflow      Inflow     Balance
                                   Inflow   Inflow   Occurrence      Volume      Volume       Error
  Node                 Type           LPS      LPS  days hr:min    10^6 ltr    10^6 ltr     Percent
  -------------------------------------------------------------------------------------------------
  WS02001211           JUNCTION      7.35   387.66     0  01:30       0.207           7       0.346
  WS02001212           JUNCTION      0.00   387.64     0  01:30           0        6.97       0.188
  WS02001213           JUNCTION      0.00   388.04     0  03:10           0        6.96       0.276
  WS02003069           JUNCTION      0.32  1086.15     0  02:22     0.00902          17       0.161
  WS02003072           JUNCTION      0.00  1085.30     0  02:23           0        16.9       0.201
  WS02003073           JUNCTION      1.82  1086.96     0  02:24      0.0514        16.9       0.224
  WS02003060           JUNCTION     16.53  1085.74     0  02:22       0.466          17       0.154
  WS02003066           JUNCTION      0.00   825.17     0  01:58           0        9.61       0.054
  WS02003059           JUNCTION      0.00   388.94     0  03:11           0        6.94       0.485
  WS02003067           JUNCTION      0.00   825.05     0  01:58           0        9.62       0.109
  WS02004401           JUNCTION      0.00   825.56     0  01:56           0        9.89       0.246
  WS02004402           JUNCTION      0.00   825.56     0  01:56           0        9.86       0.229
  WS02004403           JUNCTION      0.00   825.56     0  01:56           0        9.84       0.205
  WS02004404           JUNCTION      0.16   825.73     0  01:56     0.00457        9.82       0.152
  WS02004406           JUNCTION      0.00   825.76     0  01:56           0        9.79       0.369
  WS02004409           JUNCTION      0.00   825.74     0  01:56           0        9.74       0.205
  WS02004410           JUNCTION      0.00   825.31     0  01:56           0        9.72       0.226
  WS02004411           JUNCTION      0.00   825.12     0  01:57           0         9.7       0.228
  WS02004412           JUNCTION      0.00   825.04     0  01:57           0        9.68       0.242
  WS02004413           JUNCTION      0.00   825.03     0  01:57           0        9.66       0.349
  WS02004405           JUNCTION      0.04   825.76     0  01:56     0.00107        9.81       0.226
  WS02006109           JUNCTION      1.23   800.91     0  01:54      0.0347        9.93       0.229
  WS02006110           JUNCTION      0.00   800.87     0  01:54           0        9.91       0.219
  WS02006111           JUNCTION      0.00   800.33     0  01:55           0        9.88       0.056
  WS02006112           JUNCTION     26.81   825.63     0  01:56      0.0948        9.97       0.320
  WS02006113           JUNCTION      0.00   800.86     0  01:54           0        9.89       0.118
  WS02006115           JUNCTION      0.00   825.65     0  01:56           0        9.93       0.241
  WS02006116           JUNCTION      0.00   825.55     0  01:56           0        9.91       0.225
  WS02006230           JUNCTION     10.28   399.41     0  04:22        0.29        7.25       0.220
  WS02006231           JUNCTION      0.00   390.07     0  04:22           0        6.97       0.201
  WS02006232           JUNCTION      0.00   390.14     0  04:22           0        6.99       0.249
  WS02006234           JUNCTION      0.00   392.03     0  04:21           0           7       0.148
  WS02006235           JUNCTION      0.00   391.72     0  04:21           0        7.12       0.175
  WS02006238           JUNCTION      0.00   344.82     0  07:30           0        5.25       0.170
  WS02006240           JUNCTION      0.00   339.30     0  07:30           0        5.25       0.305
  WS02006242           JUNCTION      0.00   340.07     0  01:42           0        5.26       0.358
  WS02006243           JUNCTION      0.00   371.60     0  01:42           0        5.26       0.064
  WS02006245           JUNCTION      0.00   385.63     0  01:42           0        5.27       0.282
  WS02006247           JUNCTION      0.00   392.33     0  01:42           0        5.28       0.201
  WS02006248           JUNCTION      0.00   401.04     0  01:41           0        5.29       0.151
  WS02006249           JUNCTION      0.00   542.72     0  01:55           0        6.54       0.220
  WS02006239           JUNCTION      0.00   343.29     0  07:30           0        5.25       0.281
  WS02006251           JUNCTION      0.08   543.08     0  01:55     0.00217        6.58       0.219
  WS02006252           JUNCTION      0.00   400.00     0  01:40           0        6.02       0.009
  WS02006253           JUNCTION      3.66   142.87     0  01:54      0.0117       0.572       1.433
  WS02006256           JUNCTION      0.00   600.00     0  03:20           0        6.79       0.051
  WS02004138           JUNCTION      0.00   380.00     0  01:20           0        6.81       0.044
  WS02004407           JUNCTION      0.00   825.77     0  01:56           0        9.75       0.091
  WS02006228           JUNCTION      0.00   799.73     0  01:54           0        9.91       0.158
  WS02006229           JUNCTION      0.00   800.01     0  01:54           0        9.93       0.146
  WS02006280           JUNCTION      0.00   656.04     0  01:55           0         2.7       0.002
  WS02006284           JUNCTION      0.10   655.96     0  01:55      0.0027         2.7       0.040
  WS02006287           JUNCTION      0.00   655.81     0  01:54           0         2.7       0.027
  WSF200               JUNCTION      0.00   825.26     0  01:58           0        9.61       0.055
  HS02004901           JUNCTION     32.57    32.57     0  01:50       0.114       0.115       1.559
  HS02004881           JUNCTION     13.82   139.59     0  01:54      0.0479       0.529       0.079
  HS02004876           JUNCTION     24.51   126.37     0  01:54      0.0923       0.482       0.114
  HS02004870           JUNCTION     25.44   102.13     0  01:54      0.0907        0.39       0.028
  HS02004862           JUNCTION     23.11    77.53     0  01:55       0.099       0.299       0.058
  HS02004856           JUNCTION     19.02    54.51     0  01:55      0.0682       0.202       0.719
  HS02004852           JUNCTION      0.00    36.10     0  01:55           0       0.134       0.042
  HS02004848           JUNCTION     50.49    50.49     0  01:57       0.223       0.223       0.020
  HS02004842           JUNCTION      0.00    15.55     0  02:06           0       0.102      14.561
  HS02004837           JUNCTION     49.08    62.50     0  01:55       0.337       0.426       0.190
  HS02004830           JUNCTION      0.15    62.61     0  01:55     0.00423       0.416       0.298
  HS02004824           JUNCTION     60.06   122.20     0  01:58       0.286       0.702       0.077
  HS02004817           JUNCTION      0.60   124.03     0  01:59      0.0169       0.718       2.378
  HS02004807           JUNCTION     47.25   168.28     0  01:57       0.166       0.868       0.499
  HS02004802           JUNCTION      0.00   169.25     0  01:58           0       0.865       0.462
  HS02004799           JUNCTION     37.43   414.53     0  01:52       0.135        1.57       0.167
  HS02004792           JUNCTION    160.44   377.30     0  01:52       0.598        1.44       0.028
  HS02004788           JUNCTION     53.14   218.54     0  01:52        0.24       0.839       0.047
  HS02004785           JUNCTION      0.15   165.59     0  01:52     0.00423       0.601       0.082
  HS02004777           JUNCTION      0.03   165.80     0  01:51    0.000846       0.601       0.872
  HS02004770           JUNCTION    134.74   166.64     0  01:51        0.49       0.602       0.516
  HS02004480           JUNCTION      0.00   492.23     0  01:53           0        1.85       0.065
  HS02004479           JUNCTION      0.00    78.00     0  01:53           0       0.292       0.252
  HS02004478           JUNCTION      0.00   655.76     0  01:54           0         2.7       0.013
  YS02001745           JUNCTION    386.89   386.89     0  02:16        3.55        3.55       0.264
  YS02001748           JUNCTION      0.04   396.94     0  02:15     0.00127        3.54       0.650
  YS02001751           JUNCTION      0.01   397.33     0  02:15     0.00031        3.52       0.679
  YS02001754           JUNCTION      0.26   397.31     0  02:15     0.00733         3.5       0.701
  YS02001762           JUNCTION      0.00   438.87     0  02:05           0         2.1       1.005
  YS02001765           JUNCTION      0.00   438.87     0  02:05           0         2.1       1.161
  YS02001767           JUNCTION      0.54   438.92     0  02:05      0.0151        2.13       1.698
  YS02001770           JUNCTION    491.42   572.81     0  02:59        3.94        4.37       0.721
  YS02001774           JUNCTION      0.00   573.46     0  02:59           0        2.66       0.941
  YS02001779           JUNCTION      0.01   573.84     0  02:59    0.000141        2.63       0.586
  YS02001882           JUNCTION      0.00    21.59     0  01:52           0      0.0311       8.452
  YS02001884           JUNCTION      0.00    48.87     0  01:52           0       0.068      10.106
  YS02001759           JUNCTION    476.91   880.24     0  02:06        3.62        5.26       0.433
  YS02001887           JUNCTION    605.93   606.18     0  02:16        4.13        4.16       0.208
  YS02001890           JUNCTION      0.00   606.23     0  02:15           0        4.11       0.233
  YS02001898           JUNCTION      0.00   519.85     0  01:58           0           4       0.071
  YS02001901           JUNCTION      0.00   520.31     0  01:57           0           4       0.186
  YS02001904           JUNCTION      0.00   520.82     0  01:57           0        3.99       0.168
  YS02001907           JUNCTION      0.00  1121.35     0  02:00           0        9.13       0.265
  YS02001910           JUNCTION      0.00   605.95     0  02:00           0        5.15       0.224
  YS02001915           JUNCTION    345.21   605.77     0  02:00        2.96        5.19       0.126
  YS02001918           JUNCTION      0.00   323.58     0  02:00           0        2.25       0.089
  YS02001619           JUNCTION    336.52   336.52     0  02:16        2.95        2.95       0.416
  YS02001629           JUNCTION      0.00   200.46     0  01:47           0        1.44       2.022
  YS02001641           JUNCTION      0.00   409.52     0  01:48           0        4.85       0.432
  YS02001644           JUNCTION    367.62  1367.89     0  02:57        3.42        11.8       0.220
  YS02001652           JUNCTION      0.00   477.95     0  02:11           0        3.06       0.746
  YS02001655           JUNCTION      0.15   478.11     0  02:11     0.00434        3.08       0.834
  YS02001920           JUNCTION      2.87   323.66     0  02:00      0.0809        2.24       0.141
  YS02001923           JUNCTION      0.04   303.94     0  02:00     0.00106        2.14       0.045
  YS02001926           JUNCTION      0.05   231.53     0  01:59     0.00147        2.13       0.156
  YS02001929           JUNCTION    185.81   185.81     0  03:01        2.12        2.12       0.029
  YS02001658           JUNCTION      0.00   489.69     0  02:16           0         3.1       0.745
  YS02001661           JUNCTION      0.00   780.27     0  02:07           0        3.78      -0.197
  YS02001664           JUNCTION    437.54   437.54     0  02:16         3.1        3.79       0.126
  YS02001622           JUNCTION      0.00   336.80     0  02:16           0        2.94       1.089
  YS02001633           JUNCTION    373.18   410.25     0  01:48        3.53        4.92       0.651
  YS02001649           JUNCTION      0.00   943.58     0  02:03           0        6.36       0.581
  YS02001757           JUNCTION      0.00  2147.27     0  02:06           0        11.1       0.830
  YS02001895           JUNCTION      0.00   519.44     0  01:58           0           4       0.138
  YS02001625           JUNCTION      0.00   336.61     0  02:16           0        2.91       1.364
  YS02163301           JUNCTION      0.00   223.85     0  01:48           0        1.44       1.687
  YS02163601           JUNCTION      0.11   410.48     0  01:48      0.0031        4.86       0.616
  YS02164001           JUNCTION      0.00   410.35     0  01:48           0        4.85       0.407
  YS02001647           JUNCTION      0.00   642.39     0  02:57           0        5.19       0.547
  YSB1154              JUNCTION     43.61    43.61     0  01:53       0.163       0.164       0.888
  YSB6556              JUNCTION      0.00    43.64     0  01:53           0       0.165       0.764
  YSB1174              JUNCTION     35.87    35.87     0  01:50        0.12        0.12       1.078
  YSB1171              JUNCTION      0.00    78.04     0  01:52           0       0.291       2.227
  YS02006553           JUNCTION      0.00   689.71     0  01:57           0        7.15       0.220
  YS02006561           JUNCTION      0.00  1119.34     0  01:57           0        10.9       0.007
  YS02006556           JUNCTION      0.00   689.38     0  01:57           0        7.16       0.161
  YS02006558           JUNCTION    522.52  1119.64     0  01:57        3.81        10.9       0.050
  YS02001783           JUNCTION      0.00  1094.45     0  01:57           0        10.9       0.024
  YS02001784           JUNCTION      1.06  1095.38     0  01:58      0.0299        10.9       0.036
  YS02001786           JUNCTION      0.06  1095.31     0  01:57     0.00159        10.9       0.034
  YS02001788           JUNCTION      0.07  1095.23     0  01:57       0.002        10.9       0.018
  YS02001790           JUNCTION      0.15  1075.25     0  01:57     0.00437        10.9       0.026
  YS02001791           JUNCTION      0.00  1129.33     0  01:56           0        10.9       0.007
  YS02001793           JUNCTION      0.00  1048.07     0  01:56           0        10.9       0.002
  WS02004139           JUNCTION      0.32   380.36     0  01:20     0.00905        6.82       0.379
  WSC                  OUTFALL       0.00  1086.65     0  02:24           0        16.9       0.000
  3                    OUTFALL       0.00   497.56     0  04:20           0        4.89       0.000
  4                    OUTFALL       0.00   352.63     0  01:55           0        1.24       0.000
  5                    OUTFALL       0.00     0.00     0  00:00           0           0       0.000 ltr
  JK-storage           STORAGE       0.00  1024.20     0  01:58           0        11.1      -8.040
  CC-storage           STORAGE       0.00  2147.23     0  02:06           0        9.28       0.288
  XR-storage           STORAGE     844.69   844.69     0  03:01        12.1        12.7      -0.002
  
  
  **********************
  Node Surcharge Summary
  **********************
  
  Surcharging occurs when water rises above the top of the highest conduit.
  ---------------------------------------------------------------------
                                               Max. Height   Min. Depth
                                   Hours       Above Crown    Below Rim
  Node                 Type      Surcharged         Meters       Meters
  ---------------------------------------------------------------------
  WS02004401           JUNCTION        0.58          0.125        1.535
  WS02004402           JUNCTION        0.62          0.126        1.614
  WS02004403           JUNCTION        0.63          0.114        1.916
  WS02004404           JUNCTION        0.83          0.165        2.615
  WS02004406           JUNCTION        0.74          0.112        2.338
  WS02004405           JUNCTION        0.77          0.145        2.655
  WS02006109           JUNCTION        3.20          0.469        1.351
  WS02006110           JUNCTION        1.46          0.219        1.631
  WS02006112           JUNCTION        1.56          0.411        1.269
  WS02006115           JUNCTION        0.32          0.072        2.178
  WS02006116           JUNCTION        0.36          0.077        2.213
  WS02006230           JUNCTION        0.78          0.748        0.822
  WS02006231           JUNCTION        1.19          1.027        0.503
  WS02006232           JUNCTION        3.56          0.651        0.829
  WS02006234           JUNCTION        1.47          0.642        0.598
  WS02006235           JUNCTION        2.44          0.630        0.660
  WS02006238           JUNCTION        2.97          0.688        0.742
  WS02006240           JUNCTION        1.40          0.975        0.415
  WS02006242           JUNCTION        2.44          0.820        0.000
  WS02006243           JUNCTION        0.82          0.770        0.000
  WS02006245           JUNCTION        0.39          0.850        0.000
  WS02006247           JUNCTION        0.39          0.760        0.000
  WS02006248           JUNCTION        0.01          0.348        0.032
  WS02006239           JUNCTION        1.58          0.890        0.400
  WS02006252           JUNCTION        3.38          0.193        0.907
  WS02006228           JUNCTION        2.98          0.583        1.617
  YS02001748           JUNCTION        5.99          0.437        0.753
  YS02001751           JUNCTION        6.02          1.018        0.182
  YS02001754           JUNCTION        6.04          0.898        0.252
  YS02001762           JUNCTION        6.09          1.041        0.109
  YS02001765           JUNCTION        6.08          0.989        0.111
  YS02001767           JUNCTION        6.07          0.948        0.082
  YS02001770           JUNCTION        6.07          0.898        0.022
  YS02001774           JUNCTION        6.08          1.005        0.045
  YS02001779           JUNCTION        6.04          0.680        0.000
  YS02001882           JUNCTION        1.76          0.667        0.163
  YS02001884           JUNCTION        1.79          0.697        0.173
  YS02001759           JUNCTION        6.09          1.080        0.130
  YS02001887           JUNCTION        1.87          0.767        0.183
  YS02001890           JUNCTION        1.90          0.760        0.000
  YS02001898           JUNCTION        1.72          0.542        0.198
  YS02001901           JUNCTION        1.83          0.685        0.185
  YS02001904           JUNCTION        1.81          0.643        0.207
  YS02001907           JUNCTION        2.25          0.950        0.000
  YS02001910           JUNCTION        1.94          0.812        0.288
  YS02001915           JUNCTION        1.75          0.640        0.360
  YS02001918           JUNCTION        1.51          0.371        0.439
  YS02001619           JUNCTION        6.02          0.610        0.000
  YS02001629           JUNCTION        6.02          0.470        0.000
  YS02001641           JUNCTION        6.08          0.935        0.165
  YS02001644           JUNCTION        6.08          0.920        0.000
  YS02001652           JUNCTION        6.05          1.130        0.000
  YS02001655           JUNCTION        6.02          1.200        0.000
  YS02001920           JUNCTION        1.55          0.468        0.672
  YS02001923           JUNCTION        0.01          0.039        0.781
  YS02001926           JUNCTION        0.01          0.274        0.626
  YS02001658           JUNCTION        5.99          1.269        0.031
  YS02001661           JUNCTION        0.33          1.390        0.000
  YS02001622           JUNCTION        6.02          0.620        0.000
  YS02001633           JUNCTION        6.08          0.925        0.135
  YS02001649           JUNCTION        6.09          1.050        0.000
  YS02001757           JUNCTION        6.12          1.181        0.029
  YS02001895           JUNCTION        1.73          0.567        0.183
  YS02001625           JUNCTION        6.05          0.780        0.000
  YS02163301           JUNCTION        6.07          0.905        0.125
  YS02163601           JUNCTION        6.09          0.990        0.090
  YS02164001           JUNCTION        6.08          0.923        0.177
  YS02001647           JUNCTION        6.05          0.807        0.093
  YS02006553           JUNCTION        2.30          1.190        0.000
  YS02006561           JUNCTION        1.60          1.150        0.000
  YS02006556           JUNCTION        2.11          1.350        0.000
  YS02006558           JUNCTION        2.09          1.400        0.000
  YS02001783           JUNCTION        2.13          1.600        0.000
  YS02001784           JUNCTION        2.18          1.318        0.172
  YS02001786           JUNCTION        2.06          1.355        0.075
  YS02001788           JUNCTION        2.03          1.480        0.000
  YS02001790           JUNCTION        3.46          1.157        0.000
  YS02001791           JUNCTION        3.57          1.593        0.327
  YS02001793           JUNCTION        3.65          1.039        1.561
  
  
  *********************
  Node Flooding Summary
  *********************
  
  Flooding refers to all water that overflows a node, whether it ponds or not.
  --------------------------------------------------------------------------
                                                             Total   Maximum
                                 Maximum   Time of Max       Flood    Ponded
                        Hours       Rate    Occurrence      Volume     Depth
  Node                 Flooded       LPS   days hr:min    10^6 ltr    Meters
  --------------------------------------------------------------------------
  WS02006242              0.01     50.88      0  01:43       0.000     0.000
  WS02006243              0.01    118.47      0  01:43       0.000     0.000
  WS02006245              0.01     99.42      0  01:43       0.000     0.000
  WS02006247              0.01     71.36      0  01:43       0.000     0.000
  YS02001779              3.37    573.69      0  02:59       2.612     0.000
  YS02001890              0.56     90.06      0  02:15       0.101     0.000
  YS02001907              1.38    607.29      0  02:00       1.969     0.000
  YS02001619              0.01     50.75      0  01:48       0.000     0.000
  YS02001629              0.01    157.55      0  01:48       0.001     0.000
  YS02001644              5.04   1367.79      0  02:57      10.046     0.000
  YS02001652              0.01     11.08      0  01:55       0.000     0.000
  YS02001655              0.01     14.61      0  02:24       0.000     0.000
  YS02001661              0.01    118.67      0  02:24       0.000     0.000
  YS02001622              0.01     62.95      0  01:47       0.000     0.000
  YS02001649              0.11     38.09      0  02:20       0.004     0.000
  YS02001625              2.04    326.49      0  02:16       1.449     0.000
  YS02006553              0.01      3.97      0  01:58       0.000     0.000
  YS02006561              0.01     90.53      0  01:58       0.000     0.000
  YS02006556              0.01     28.70      0  01:58       0.000     0.000
  YS02006558              0.01     22.81      0  01:58       0.000     0.000
  YS02001783              0.01     24.11      0  01:58       0.000     0.000
  YS02001788              0.01    147.70      0  01:58       0.000     0.000
  YS02001790              0.01    214.80      0  01:57       0.000     0.000
  JK-storage              2.98    968.77      0  02:10       5.326     0.000
  XR-storage              5.26    710.44      0  02:10       4.971     0.000
  
  
  **********************
  Storage Volume Summary
  **********************
  
  --------------------------------------------------------------------------------------------------
                         Average     Avg  Evap Exfil       Maximum     Max    Time of Max    Maximum
                          Volume    Pcnt  Pcnt  Pcnt        Volume    Pcnt     Occurrence    Outflow
  Storage Unit           1000 m3    Full  Loss  Loss       1000 m3    Full    days hr:min        LPS
  --------------------------------------------------------------------------------------------------
  JK-storage               0.170      58     0     0         0.291     100       0  01:58     600.00
  CC-storage               3.196      20     0     0         3.883      25       0  02:55     400.00
  XR-storage               0.879      95     0     0         0.926     100       0  02:02     380.00
  
  
  ***********************
  Outfall Loading Summary
  ***********************
  
  -----------------------------------------------------------
                         Flow       Avg       Max       Total
                         Freq      Flow      Flow      Volume
  Outfall Node           Pcnt       LPS       LPS    10^6 ltr
  -----------------------------------------------------------
  WSC                   99.99    665.91   1086.65      16.912
  3                     93.21    235.85    497.56       4.892
  4                     53.22     96.15    352.63       1.235
  5                      0.00      0.00      0.00       0.000
  -----------------------------------------------------------
  System                61.60    997.90   1752.89      23.039
  
  
  ********************
  Link Flow Summary
  ********************
  
  -----------------------------------------------------------------------------
                                 Maximum  Time of Max   Maximum    Max/    Max/
                                  |Flow|   Occurrence   |Veloc|    Full    Full
  Link                 Type          LPS  days hr:min     m/sec    Flow   Depth
  -----------------------------------------------------------------------------
  WS02003066WSF200     CONDUIT    825.26     0  01:58      3.05    0.14    0.29
  WS02006287WS02006284 CONDUIT    655.86     0  01:55      2.36    0.30    0.38
  WS02006284WS02006280 CONDUIT    656.04     0  01:55      2.59    0.27    0.36
  WS02006280WS02006229 CONDUIT    656.04     0  01:55      4.17    0.14    0.26
  WS02006229WS02006228 CONDUIT    799.73     0  01:54      1.59    2.65    1.00
  WS02006256WS02006235 CONDUIT    166.25     0  00:01      2.58    1.76    1.00
  WS02006253WS02006251 CONDUIT    142.74     0  01:55      0.59    0.43    1.00
  WS02006252WS02006251 CONDUIT    400.58     0  07:30      3.19    1.47    1.00
  WS02006251WS02006249 CONDUIT    542.72     0  01:55      1.41    1.56    1.00
  WS02006249WS02006248 CONDUIT    401.04     0  01:41      1.30    2.20    1.00
  WS02006248WS02006247 CONDUIT    392.33     0  01:42      1.27    0.85    1.00
  WS02006247WS02006245 CONDUIT    385.63     0  01:42      1.23    3.06    1.00
  WS02006245WS02006243 CONDUIT    371.60     0  01:42      1.28    1.10    1.00
  WS02006243WS02006242 CONDUIT    340.07     0  01:42      1.06    0.73    1.00
  WS02006242WS02006240 CONDUIT    339.30     0  07:30      0.90    1.35    1.00
  WS02006240WS02006239 CONDUIT    343.29     0  07:30      0.94    1.08    1.00
  WS02006239WS02006238 CONDUIT    344.82     0  07:30      0.91    1.10    1.00
  WS02006238WS02006235 CONDUIT    344.28     0  07:30      1.25    0.77    1.00
  WS02006235WS02006234 CONDUIT    392.03     0  04:21      1.04    4.14    1.00
  WS02006234WS02006232 CONDUIT    390.14     0  04:22      1.13    0.79    1.00
  WS02006232WS02006231 CONDUIT    390.07     0  04:22      1.06    0.82    1.00
  WS02006231WS02006230 CONDUIT    389.14     0  04:22      1.34    5.90    1.00
  WS02006230WS02006229 CONDUIT    399.32     0  04:23      1.04    8.89    1.00
  WS02006228WS02006109 CONDUIT    799.68     0  01:54      1.59    3.49    1.00
  WS02006116WS02004401 CONDUIT    825.56     0  01:56      1.05    1.14    1.00
  WS02006115WS02006116 CONDUIT    825.55     0  01:56      1.06    1.06    1.00
  WS02006113WS02006111 CONDUIT    800.33     0  01:55      2.69    0.96    0.79
  WS02006112WS02006115 CONDUIT    825.65     0  01:56      1.05    0.49    1.00
  WS02006111WS02006112 CONDUIT    800.92     0  01:56      1.86    0.38    0.89
  WS02006110WS02006113 CONDUIT    800.86     0  01:54      1.69    0.73    0.90
  WS02006109WS02006110 CONDUIT    800.87     0  01:54      1.59    1.54    1.00
  WS02004411WS02004412 CONDUIT    825.04     0  01:57      1.16    1.17    0.85
  WS02004401WS02004402 CONDUIT    825.56     0  01:56      1.05    0.99    1.00
  WS02004413WS02003067 CONDUIT    825.05     0  01:58      1.42    0.35    0.70
  WS02004412WS02004413 CONDUIT    825.03     0  01:57      1.10    0.55    0.91
  WS02004410WS02004411 CONDUIT    825.12     0  01:57      1.15    1.13    0.86
  WS02004409WS02004410 CONDUIT    825.31     0  01:56      1.14    1.07    0.87
  WS02004407WS02004409 CONDUIT    825.74     0  01:56      1.70    0.29    0.62
  WS02004406WS02004407 CONDUIT    825.77     0  01:56      1.44    0.37    0.69
  WS02004405WS02004406 CONDUIT    825.76     0  01:56      1.05    1.63    1.00
  WS02004404WS02004405 CONDUIT    825.73     0  01:56      1.05    8.09    1.00
  WS02004403WS02004404 CONDUIT    825.56     0  01:56      1.05    0.60    1.00
  WS02004402WS02004403 CONDUIT    825.56     0  01:56      1.05    1.19    1.00
  WS02004139WS02001211 CONDUIT    380.31     0  01:30      0.69    0.48    0.60
  WS02004138WS02004139 CONDUIT    380.04     0  01:20      2.94    0.08    0.44
  WS02003067WS02003066 CONDUIT    825.17     0  01:58      1.54    0.26    0.48
  WS02001213WS02003059 CONDUIT    388.94     0  03:11      0.68    0.64    0.80
  WS02001212WS02001213 CONDUIT    388.04     0  03:10      1.32    0.60    0.49
  WS02001211WS02001212 CONDUIT    387.64     0  01:30      0.78    0.30    0.66
  WS02003072WS02003073 CONDUIT   1085.14     0  02:24      1.82    2.34    0.52
  WS02003069WS02003072 CONDUIT   1085.30     0  02:23      1.70    0.52    0.55
  WS02003060WS02003069 CONDUIT   1085.83     0  02:22      1.93    0.43    0.50
  WS02003059WS02003060 CONDUIT    390.40     0  03:11      0.95    0.25    0.70
  HS02004901HS02004770 CONDUIT     31.96     0  01:52      0.09    0.12    0.51
  HS02004876HS02004881 CONDUIT    126.38     0  01:55      1.20    1.34    0.15
  HS02004870HS02004876 CONDUIT    102.10     0  01:55      0.82    0.07    0.18
  HS02004842HS02004848 CONDUIT     15.55     0  02:06      0.07    0.01    0.33
  HS02004837HS02004842 CONDUIT     15.96     0  02:07      0.41    0.01    0.35
  HS02004830HS02004837 CONDUIT     62.46     0  01:55      0.66    0.06    0.14
  HS02004824HS02004830 CONDUIT     62.57     0  01:56      0.62    0.08    0.16
  HS02004817HS02004824 CONDUIT    123.43     0  01:59      0.31    0.06    0.58
  HS02004770HS02004777 CONDUIT    165.77     0  01:51      0.46    0.30    0.52
  HS02004799HS02004480 CONDUIT    414.30     0  01:53      1.02    0.52    0.58
  HS02004792HS02004799 CONDUIT    377.21     0  01:52      1.15    0.23    0.47
  HS02004788HS02004792 CONDUIT    218.44     0  01:53      1.24    0.14    0.25
  HS02004785HS02004788 CONDUIT    165.54     0  01:53      0.86    1.25    0.27
  HS02004777HS02004785 CONDUIT    165.44     0  01:52      0.54    0.20    0.44
  HS02004480HS02004478 CONDUIT    492.14     0  01:53      1.52    2.07    0.46
  HS02004479HS02004480 CONDUIT     78.31     0  01:54      0.27    0.08    0.55
  HS02004862HS02004870 CONDUIT     77.52     0  01:55      0.79    0.08    0.14
  HS02004848HS02004852 CONDUIT     36.10     0  01:55      0.52    0.04    0.10
  HS02004856HS02004862 CONDUIT     54.46     0  01:55      0.59    0.05    0.13
  HS02004852HS02004856 CONDUIT     36.15     0  01:56      0.33    0.04    0.16
  HS02004802HS02004478 CONDUIT    170.22     0  01:58      0.53    0.15    0.47
  HS02004478WS02006287 CONDUIT    655.81     0  01:54      2.08    0.18    0.35
  HS02004817HS02004807 CONDUIT    125.36     0  01:59      0.24    0.07    0.75
  HS02004807HS02004802 CONDUIT    169.25     0  01:58      0.47    0.32    0.53
  YS02001759YS02001757 CONDUIT    880.56     0  02:06      1.12    0.63    1.00
  YS02001762YS02001759 CONDUIT    439.09     0  02:05      0.56    0.51    1.00
  YS02001765YS02001762 CONDUIT    438.87     0  02:05      0.56    0.41    1.00
  YS02001770YS02001767 CONDUIT    438.38     0  02:05      0.56    1.74    1.00
  YS02001774YS02001770 CONDUIT    573.46     0  02:59      0.73    0.37    1.00
  YS02001779YS02001774 CONDUIT    573.83     0  02:59      0.73    0.29    1.00
  YS02001649YS02001757 CONDUIT    943.85     0  02:03      1.20    0.57    1.00
  YS02001767YS02001765 CONDUIT    438.87     0  02:05      0.56    0.55    1.00
  YS02006561YS02001783 CONDUIT   1094.45     0  01:57      2.26    0.57    1.00
  YS02001783YS02001784 CONDUIT   1094.32     0  01:58      2.18    1.51    1.00
  YS02001784YS02001785 CONDUIT   1095.26     0  01:57      2.18    2.55    1.00
  YS02001788YS02001790 CONDUIT   1075.10     0  01:57      2.62    0.79    1.00
  YS02001790YS02001791 CONDUIT   1129.33     0  01:56      3.26    1.23    1.00
  YS02001791YS02001793 CONDUIT   1048.07     0  01:56      6.30    0.45    1.00
  YS02001910YS02001907 CONDUIT    605.88     0  02:00      0.77    0.34    1.00
  YS02001786YS02001788 CONDUIT   1095.16     0  01:57      2.36    2.11    1.00
  YS02001915YS02001910 CONDUIT    605.95     0  02:00      0.77    0.30    1.00
  YS02001918YS02001915 CONDUIT    324.38     0  02:00      0.46    0.18    1.00
  YS02001923YS02001920 CONDUIT    320.79     0  02:00      0.78    0.14    1.00
  YS02001926YS02001923 CONDUIT    303.90     0  02:00      0.87    0.43    1.00
  YS02001929YS02001926 CONDUIT    231.47     0  01:59      0.93    0.11    0.92
  YS02001920YS02001918 CONDUIT    323.58     0  02:00      0.76    0.31    1.00
  YS02001629YS02163301 CONDUIT    223.85     0  01:48      0.29    0.28    1.00
  YS02001619YS02001622 CONDUIT    336.80     0  02:16      0.76    0.50    1.00
  YS02001622YS02001625 CONDUIT    336.61     0  02:16      0.43    0.18    1.00
  YS02001625YS02001629 CONDUIT    195.96     0  01:50      0.31    0.09    1.00
  YS02163301YS02001633 CONDUIT    223.50     0  01:48      0.28    0.21    1.00
  YS02163601YS02164001 CONDUIT    410.35     0  01:48      0.52    0.36    1.00
  YS02164001YS02001641 CONDUIT    409.52     0  01:48      0.52    0.56    1.00
  YS02001641YS02001644 CONDUIT    409.15     0  01:48      0.52    1.32    1.00
  YS02001647YS02001649 CONDUIT    642.39     0  02:57      0.82    0.34    1.00
  YS02006553YS02006556 CONDUIT    689.38     0  01:57      0.88    0.59    1.00
  YS02006556YS02006558 CONDUIT    690.15     0  01:57      0.88    0.54    1.00
  YSB6556YSB1171       CONDUIT     43.98     0  01:54      0.13    0.05    0.82
  YS02001907YS02006553 CONDUIT    689.71     0  01:57      0.77    0.81    1.00
  YS02006558YS02006561 CONDUIT   1119.34     0  01:57      3.96    2.47    1.00
  YS02001633YS02163601 CONDUIT    410.37     0  01:48      0.52    0.43    1.00
  YS02001644YS02001647 CONDUIT    642.62     0  02:57      0.82    0.38    1.00
  YS02001745YS02001748 CONDUIT    396.90     0  02:15      1.73    0.15    0.96
  YS02001748YS02001751 CONDUIT    397.32     0  02:15      1.26    0.20    1.00
  YS02001751YS02001754 CONDUIT    397.05     0  02:15      1.03    0.19    1.00
  YS02001754YS02001757 CONDUIT    397.17     0  02:15      0.51    0.16    1.00
  YS02001882YS02001884 CONDUIT     21.59     0  01:52      0.12    0.02    1.00
  YS02001884YS02001887 CONDUIT     48.87     0  01:52      0.09    0.07    1.00
  YS02001890YS02001895 CONDUIT    519.44     0  01:58      0.66    0.24    1.00
  YS02001895YS02001898 CONDUIT    519.85     0  01:58      0.66    0.90    1.00
  YS02001898YS02001901 CONDUIT    520.31     0  01:57      0.66    0.34    1.00
  YS02001901YS02001904 CONDUIT    520.82     0  01:57      0.66    0.81    1.00
  YS02001904YS02001907 CONDUIT    521.57     0  01:57      0.66    0.18    1.00
  YS02001887YS02001890 CONDUIT    606.23     0  02:15      0.77    1.04    1.00
  YS02001652YS02001649 CONDUIT    478.72     0  02:14      0.61    0.24    1.00
  YS02001655YS02001652 CONDUIT    477.95     0  02:11      1.09    0.23    1.00
  YS02001658YS02001655 CONDUIT    477.96     0  02:11      1.45    0.20    1.00
  YS02001661YS02001658 CONDUIT    489.69     0  02:16      1.85    0.19    1.00
  YS02001664YS02001661 CONDUIT    780.27     0  02:07      1.75    0.24    0.77
  YSB1154YSB6556       CONDUIT     43.64     0  01:53      0.17    0.08    0.72
  YSB1174YSB1171       CONDUIT     35.15     0  01:50      0.10    0.05    0.83
  YSB1171HS02004479    CONDUIT     78.00     0  01:53      0.54    0.05    0.67
  HS02004881HS02006253 CONDUIT    139.58     0  01:55      2.08    0.03    0.40
  YS02001793JiankangQianchi CONDUIT   1024.20     0  01:58     14.64    0.08    1.00
  YS02001757CaochengTiaoxuchi CONDUIT   2147.23     0  02:06      3.81    0.94    1.00
  WSF200WS02003060     CONDUIT    826.02     0  01:58      2.11    0.18    0.39
  1                    CONDUIT   1086.65     0  02:24      3.40    0.38    0.43
  2                    CONDUIT    352.63     0  01:55      6.62    0.84    0.71
  3                    CONDUIT    497.56     0  04:20      9.79    0.79    0.68
  4                    CONDUIT      0.00     0  00:00      0.00    0.00    0.00
  CC-Pump-1            PUMP       200.00     0  01:40              1.00
  CC-Pump-2            PUMP       200.00     0  01:40              1.00
  JK-Pump-1            PUMP       300.00     0  03:20              1.00
  JK-Pump-2            PUMP       300.00     0  00:00              1.00
  XR-Pump-1            PUMP        95.00     0  00:00              1.00
  XR-Pump-2            PUMP        95.00     0  00:30              1.00
  XR-Pump-3            PUMP        95.00     0  00:20              1.00
  XR-Pump-4            PUMP        95.00     0  00:00              1.00
  
  
  ***************************
  Flow Classification Summary
  ***************************
  
  -------------------------------------------------------------------------------------
                      Adjusted    ---------- Fraction of Time in Flow Class ---------- 
                       /Actual         Up    Down  Sub   Sup   Up    Down  Norm  Inlet 
  Conduit               Length    Dry  Dry   Dry   Crit  Crit  Crit  Crit  Ltd   Ctrl  
  -------------------------------------------------------------------------------------
  WS02003066WSF200        1.00   0.04  0.01  0.00  0.00  0.94  0.00  0.00  0.57  0.00
  WS02006287WS02006284    1.00   0.03  0.01  0.00  0.59  0.36  0.00  0.00  0.65  0.00
  WS02006284WS02006280    1.00   0.04  0.00  0.00  0.00  0.00  0.00  0.96  0.00  0.00
  WS02006280WS02006229    1.00   0.04  0.00  0.00  0.00  0.02  0.00  0.94  0.01  0.00
  WS02006229WS02006228    1.00   0.00  0.00  0.00  0.99  0.00  0.00  0.01  0.00  0.00
  WS02006256WS02006235    1.00   0.00  0.00  0.00  1.00  0.00  0.00  0.00  0.00  0.00
  WS02006253WS02006251    1.00   0.03  0.01  0.00  0.96  0.00  0.00  0.00  0.00  0.00
  WS02006252WS02006251    1.00   0.06  0.00  0.00  0.00  0.00  0.94  0.00  0.00  0.00
  WS02006251WS02006249    1.00   0.00  0.00  0.00  1.00  0.00  0.00  0.00  0.18  0.00
  WS02006249WS02006248    1.00   0.00  0.02  0.00  0.94  0.00  0.04  0.00  0.00  0.00
  WS02006248WS02006247    1.00   0.02  0.00  0.00  0.98  0.00  0.00  0.00  0.06  0.00
  WS02006247WS02006245    1.00   0.02  0.00  0.00  0.98  0.00  0.00  0.00  0.00  0.00
  WS02006245WS02006243    1.00   0.01  0.00  0.00  0.96  0.00  0.00  0.03  0.01  0.00
  WS02006243WS02006242    1.00   0.01  0.00  0.00  0.99  0.00  0.00  0.00  0.16  0.00
  WS02006242WS02006240    1.00   0.00  0.00  0.00  1.00  0.00  0.00  0.00  0.00  0.00
  WS02006240WS02006239    1.00   0.00  0.00  0.00  0.97  0.00  0.00  0.02  0.01  0.00
  WS02006239WS02006238    1.00   0.00  0.00  0.00  1.00  0.00  0.00  0.00  0.00  0.00
  WS02006238WS02006235    1.00   0.00  0.00  0.00  1.00  0.00  0.00  0.00  0.00  0.00
  WS02006235WS02006234    1.00   0.00  0.00  0.00  0.97  0.00  0.03  0.00  0.00  0.00
  WS02006234WS02006232    1.00   0.00  0.00  0.00  1.00  0.00  0.00  0.00  0.00  0.00
  WS02006232WS02006231    1.00   0.00  0.00  0.00  0.99  0.00  0.00  0.00  0.00  0.00
  WS02006231WS02006230    1.00   0.00  0.00  0.00  0.77  0.00  0.23  0.00  0.00  0.00
  WS02006230WS02006229    1.00   0.00  0.00  0.00  0.99  0.00  0.00  0.01  0.01  0.00
  WS02006228WS02006109    1.00   0.00  0.00  0.00  1.00  0.00  0.00  0.00  0.00  0.00
  WS02006116WS02004401    1.00   0.02  0.00  0.00  0.98  0.00  0.00  0.00  0.00  0.00
  WS02006115WS02006116    1.00   0.02  0.00  0.00  0.97  0.00  0.00  0.01  0.00  0.00
  WS02006113WS02006111    1.00   0.02  0.00  0.00  0.06  0.92  0.00  0.00  0.09  0.00
  WS02006112WS02006115    1.00   0.02  0.00  0.00  0.98  0.00  0.00  0.00  0.00  0.00
  WS02006111WS02006112    1.00   0.02  0.00  0.00  0.98  0.00  0.00  0.00  0.88  0.00
  WS02006110WS02006113    1.00   0.01  0.01  0.00  0.98  0.00  0.00  0.00  0.00  0.00
  WS02006109WS02006110    1.00   0.00  0.01  0.00  0.98  0.00  0.01  0.00  0.00  0.00
  WS02004411WS02004412    1.00   0.03  0.00  0.00  0.97  0.00  0.00  0.00  0.00  0.00
  WS02004401WS02004402    1.00   0.02  0.00  0.00  0.98  0.00  0.00  0.00  0.00  0.00
  WS02004413WS02003067    1.00   0.04  0.01  0.00  0.00  0.00  0.95  0.00  0.00  0.00
  WS02004412WS02004413    1.00   0.03  0.00  0.00  0.97  0.00  0.00  0.00  0.03  0.00
  WS02004410WS02004411    1.00   0.03  0.00  0.00  0.97  0.00  0.00  0.00  0.03  0.00
  WS02004409WS02004410    1.00   0.03  0.00  0.00  0.97  0.00  0.00  0.00  0.03  0.00
  WS02004407WS02004409    1.00   0.03  0.00  0.00  0.96  0.00  0.00  0.00  0.89  0.00
  WS02004406WS02004407    1.00   0.00  0.03  0.00  0.97  0.00  0.00  0.00  0.00  0.00
  WS02004405WS02004406    1.00   0.00  0.00  0.00  1.00  0.00  0.00  0.00  0.01  0.00
  WS02004404WS02004405    1.00   0.00  0.00  0.00  1.00  0.00  0.00  0.00  0.00  0.00
  WS02004403WS02004404    1.00   0.00  0.02  0.00  0.98  0.00  0.00  0.00  0.01  0.00
  WS02004402WS02004403    1.00   0.02  0.00  0.00  0.98  0.00  0.00  0.00  0.00  0.00
  WS02004139WS02001211    1.00   0.00  0.00  0.00  1.00  0.00  0.00  0.00  0.00  0.00
  WS02004138WS02004139    1.00   0.00  0.00  0.00  0.99  0.01  0.00  0.00  1.00  0.00
  WS02003067WS02003066    1.00   0.05  0.01  0.00  0.95  0.00  0.00  0.00  0.00  0.00
  WS02001213WS02003059    1.00   0.00  0.00  0.00  0.99  0.00  0.00  0.00  0.00  0.00
  WS02001212WS02001213    1.00   0.00  0.00  0.00  0.92  0.00  0.08  0.00  0.00  0.00
  WS02001211WS02001212    1.00   0.00  0.00  0.00  1.00  0.00  0.00  0.00  0.00  0.00
  WS02003072WS02003073    1.00   0.00  0.00  0.00  0.00  0.00  0.00  1.00  0.00  0.00
  WS02003069WS02003072    1.00   0.00  0.00  0.00  0.99  0.01  0.00  0.00  0.17  0.00
  WS02003060WS02003069    1.00   0.00  0.00  0.00  0.99  0.01  0.00  0.00  0.08  0.00
  WS02003059WS02003060    1.00   0.00  0.00  0.00  1.00  0.00  0.00  0.00  0.01  0.00
  HS02004901HS02004770    1.00   0.04  0.00  0.00  0.96  0.00  0.00  0.00  0.00  0.00
  HS02004876HS02004881    1.00   0.02  0.00  0.00  0.84  0.14  0.00  0.00  0.00  0.00
  HS02004870HS02004876    1.00   0.01  0.00  0.00  0.99  0.00  0.00  0.00  0.95  0.00
  HS02004842HS02004848    1.00   0.00  0.04  0.00  0.96  0.00  0.00  0.00  0.57  0.00
  HS02004837HS02004842    1.00   0.00  0.00  0.00  0.99  0.01  0.00  0.00  0.11  0.00
  HS02004830HS02004837    1.00   0.00  0.00  0.00  1.00  0.00  0.00  0.00  0.99  0.00
  HS02004824HS02004830    1.00   0.00  0.00  0.00  1.00  0.00  0.00  0.00  0.03  0.00
  HS02004817HS02004824    1.00   0.00  0.00  0.00  1.00  0.00  0.00  0.00  0.94  0.00
  HS02004770HS02004777    1.00   0.00  0.04  0.00  0.96  0.00  0.00  0.00  0.03  0.00
  HS02004799HS02004480    1.00   0.00  0.02  0.00  0.96  0.00  0.02  0.00  0.00  0.00
  HS02004792HS02004799    1.00   0.00  0.00  0.00  0.99  0.01  0.00  0.00  0.98  0.00
  HS02004788HS02004792    1.00   0.00  0.00  0.00  0.99  0.01  0.00  0.00  0.98  0.00
  HS02004785HS02004788    1.00   0.00  0.00  0.00  1.00  0.00  0.00  0.00  0.00  0.00
  HS02004777HS02004785    1.00   0.00  0.00  0.00  1.00  0.00  0.00  0.00  0.13  0.00
  HS02004480HS02004478    1.00   0.04  0.00  0.00  0.64  0.00  0.00  0.32  0.00  0.00
  HS02004479HS02004480    1.00   0.02  0.00  0.00  0.98  0.00  0.00  0.00  0.12  0.00
  HS02004862HS02004870    1.00   0.00  0.00  0.00  1.00  0.00  0.00  0.00  0.04  0.00
  HS02004848HS02004852    1.00   0.04  0.00  0.00  0.96  0.00  0.00  0.00  0.78  0.00
  HS02004856HS02004862    1.00   0.00  0.05  0.00  0.95  0.00  0.00  0.00  0.82  0.00
  HS02004852HS02004856    1.00   0.04  0.00  0.00  0.96  0.00  0.00  0.00  0.77  0.00
  HS02004802HS02004478    1.00   0.04  0.00  0.00  0.96  0.00  0.00  0.00  0.03  0.00
  HS02004478WS02006287    1.00   0.04  0.00  0.00  0.70  0.25  0.00  0.00  0.62  0.00
  HS02004817HS02004807    1.00   0.00  0.04  0.00  0.96  0.00  0.00  0.00  0.01  0.00
  HS02004807HS02004802    1.00   0.04  0.00  0.00  0.96  0.00  0.00  0.00  0.00  0.00
  YS02001759YS02001757    1.00   0.00  0.00  0.00  1.00  0.00  0.00  0.00  0.16  0.00
  YS02001762YS02001759    1.00   0.00  0.00  0.00  1.00  0.00  0.00  0.00  0.03  0.00
  YS02001765YS02001762    1.00   0.00  0.00  0.00  1.00  0.00  0.00  0.00  0.14  0.00
  YS02001770YS02001767    1.00   0.00  0.00  0.00  1.00  0.00  0.00  0.00  0.00  0.00
  YS02001774YS02001770    1.00   0.00  0.04  0.00  0.96  0.00  0.00  0.00  0.03  0.00
  YS02001779YS02001774    1.00   0.00  0.00  0.00  1.00  0.00  0.00  0.00  0.18  0.00
  YS02001649YS02001757    1.00   0.00  0.00  0.00  1.00  0.00  0.00  0.00  0.16  0.00
  YS02001767YS02001765    1.00   0.00  0.00  0.00  1.00  0.00  0.00  0.00  0.00  0.00
  YS02006561YS02001783    1.00   0.05  0.00  0.00  0.52  0.43  0.00  0.00  0.49  0.00
  YS02001783YS02001784    1.00   0.00  0.05  0.00  0.95  0.00  0.00  0.00  0.00  0.00
  YS02001784YS02001785    1.00   0.00  0.00  0.00  1.00  0.00  0.00  0.00  0.17  0.00
  YS02001788YS02001790    1.00   0.00  0.00  0.00  0.59  0.41  0.00  0.00  0.44  0.00
  YS02001790YS02001791    1.00   0.00  0.00  0.00  0.56  0.44  0.00  0.00  0.31  0.00
  YS02001791YS02001793    1.00   0.00  0.00  0.00  0.56  0.44  0.00  0.00  0.01  0.00
  YS02001910YS02001907    1.00   0.00  0.00  0.00  0.98  0.00  0.00  0.02  0.12  0.00
  YS02001786YS02001788    1.00   0.00  0.00  0.00  0.60  0.40  0.00  0.00  0.00  0.00
  YS02001915YS02001910    1.00   0.00  0.00  0.00  0.99  0.01  0.00  0.00  0.16  0.00
  YS02001918YS02001915    1.00   0.00  0.01  0.00  0.98  0.01  0.00  0.00  0.52  0.00
  YS02001923YS02001920    1.00   0.00  0.00  0.00  1.00  0.00  0.00  0.00  0.74  0.00
  YS02001926YS02001923    1.00   0.00  0.03  0.00  0.28  0.00  0.69  0.00  0.00  0.00
  YS02001929YS02001926    1.00   0.00  0.04  0.00  0.96  0.00  0.00  0.00  0.66  0.00
  YS02001920YS02001918    1.00   0.00  0.01  0.00  0.99  0.00  0.00  0.00  0.00  0.00
  YS02001629YS02163301    1.00   0.04  0.00  0.00  0.96  0.00  0.00  0.00  0.00  0.00
  YS02001619YS02001622    1.00   0.04  0.00  0.00  0.96  0.00  0.00  0.00  0.00  0.00
  YS02001622YS02001625    1.00   0.04  0.00  0.00  0.96  0.00  0.00  0.00  0.05  0.00
  YS02001625YS02001629    1.00   0.04  0.01  0.00  0.94  0.00  0.01  0.00  0.00  0.00
  YS02163301YS02001633    1.00   0.00  0.04  0.00  0.96  0.00  0.00  0.00  0.00  0.00
  YS02163601YS02164001    1.00   0.00  0.03  0.00  0.97  0.00  0.00  0.00  0.00  0.00
  YS02164001YS02001641    1.00   0.01  0.02  0.00  0.97  0.00  0.00  0.00  0.06  0.00
  YS02001641YS02001644    1.00   0.00  0.01  0.00  0.99  0.00  0.00  0.00  0.00  0.00
  YS02001647YS02001649    1.00   0.00  0.04  0.00  0.95  0.00  0.00  0.00  0.01  0.00
  YS02006553YS02006556    1.00   0.01  0.00  0.00  0.99  0.00  0.00  0.00  0.03  0.00
  YS02006556YS02006558    1.00   0.00  0.00  0.00  1.00  0.00  0.00  0.00  0.00  0.00
  YSB6556YSB1171          1.00   0.02  0.01  0.00  0.96  0.00  0.00  0.00  0.00  0.00
  YS02001907YS02006553    1.00   0.00  0.02  0.00  0.98  0.00  0.00  0.00  0.00  0.00
  YS02006558YS02006561    1.00   0.05  0.00  0.00  0.29  0.66  0.00  0.00  0.42  0.00
  YS02001633YS02163601    1.00   0.00  0.01  0.00  0.99  0.00  0.00  0.00  0.15  0.00
  YS02001644YS02001647    1.00   0.00  0.05  0.00  0.95  0.00  0.00  0.00  0.00  0.00
  YS02001745YS02001748    1.00   0.00  0.00  0.00  0.92  0.00  0.00  0.08  0.01  0.00
  YS02001748YS02001751    1.00   0.00  0.00  0.00  0.98  0.02  0.00  0.00  0.14  0.00
  YS02001751YS02001754    1.00   0.00  0.00  0.00  0.95  0.00  0.00  0.05  0.01  0.00
  YS02001754YS02001757    1.00   0.00  0.00  0.00  0.99  0.01  0.00  0.00  0.18  0.00
  YS02001882YS02001884    1.00   0.04  0.00  0.00  0.96  0.00  0.00  0.00  0.00  0.00
  YS02001884YS02001887    1.00   0.03  0.01  0.00  0.96  0.00  0.00  0.00  0.00  0.00
  YS02001890YS02001895    1.00   0.00  0.04  0.00  0.96  0.00  0.00  0.00  0.00  0.00
  YS02001895YS02001898    1.00   0.04  0.00  0.00  0.95  0.00  0.00  0.00  0.00  0.00
  YS02001898YS02001901    1.00   0.04  0.00  0.00  0.96  0.00  0.00  0.00  0.01  0.00
  YS02001901YS02001904    1.00   0.04  0.00  0.00  0.96  0.00  0.00  0.00  0.00  0.00
  YS02001904YS02001907    1.00   0.00  0.04  0.00  0.96  0.00  0.00  0.00  0.00  0.00
  YS02001887YS02001890    1.00   0.00  0.00  0.00  0.98  0.00  0.02  0.00  0.00  0.00
  YS02001652YS02001649    1.00   0.00  0.00  0.00  1.00  0.00  0.00  0.00  0.16  0.00
  YS02001655YS02001652    1.00   0.00  0.00  0.00  0.95  0.00  0.00  0.05  0.01  0.00
  YS02001658YS02001655    1.00   0.00  0.04  0.00  0.94  0.02  0.00  0.00  0.02  0.00
  YS02001661YS02001658    1.00   0.04  0.00  0.00  0.92  0.04  0.00  0.00  0.00  0.00
  YS02001664YS02001661    1.00   0.04  0.00  0.00  0.92  0.04  0.00  0.00  0.10  0.00
  YSB1154YSB6556          1.00   0.04  0.00  0.00  0.96  0.00  0.00  0.00  0.02  0.00
  YSB1174YSB1171          1.00   0.03  0.01  0.00  0.97  0.00  0.00  0.00  0.00  0.00
  YSB1171HS02004479       1.00   0.02  0.00  0.00  0.97  0.00  0.00  0.00  0.11  0.00
  HS02004881HS02006253    1.00   0.03  0.00  0.00  0.85  0.01  0.00  0.12  0.71  0.00
  YS02001793JiankangQianchi    1.00   0.00  0.00  0.00  0.64  0.36  0.00  0.00  0.10  0.00
  YS02001757CaochengTiaoxuchi    1.00   0.00  0.06  0.00  0.88  0.06  0.00  0.00  0.00  0.00
  WSF200WS02003060        1.00   0.00  0.04  0.00  0.69  0.27  0.00  0.00  0.13  0.00
  1                       1.00   0.00  0.00  0.00  0.00  1.00  0.00  0.00  0.35  0.00
  2                       1.00   0.46  0.00  0.00  0.00  0.53  0.00  0.00  0.11  0.00
  3                       1.00   0.07  0.00  0.00  0.00  0.93  0.00  0.00  0.22  0.00
  4                       1.00   1.00  0.00  0.00  0.00  0.00  0.00  0.00  0.00  0.00
  
  
  *************************
  Conduit Surcharge Summary
  *************************
  
  ----------------------------------------------------------------------------
                                                           Hours        Hours 
                         --------- Hours Full --------   Above Full   Capacity
  Conduit                Both Ends  Upstream  Dnstream   Normal Flow   Limited
  ----------------------------------------------------------------------------
  WS02006229WS02006228        2.98      3.44      2.98      5.44         2.98
  WS02006256WS02006235        6.35      6.35      7.83      2.79         0.01
  WS02006253WS02006251        0.33      0.33      0.42      0.01         0.01
  WS02006252WS02006251        2.06      2.06      3.38      3.04         0.01
  WS02006251WS02006249        0.17      0.34      0.17      2.28         0.17
  WS02006249WS02006248        0.01      0.01      0.17      5.27         0.01
  WS02006248WS02006247        0.17      0.17      0.39      0.01         0.01
  WS02006247WS02006245        0.39      0.41      0.39      5.58         0.39
  WS02006245WS02006243        0.41      0.41      0.82      0.03         0.01
  WS02006243WS02006242        0.99      0.99      2.43      0.01         0.01
  WS02006242WS02006240        1.40      1.40      3.03      2.84         0.01
  WS02006240WS02006239        1.50      1.50      1.58      0.12         0.01
  WS02006239WS02006238        2.74      2.75      2.97      0.20         0.14
  WS02006238WS02006235        2.69      2.69      3.41      0.01         0.01
  WS02006235WS02006234        1.47      1.47      2.43      6.37         0.04
  WS02006234WS02006232        1.55      1.55      3.55      0.01         0.01
  WS02006232WS02006231        1.19      1.19      3.55      0.01         0.01
  WS02006231WS02006230        0.78      0.78      1.37      6.36         0.01
  WS02006230WS02006229        4.60      5.24      4.60      6.45         4.59
  WS02006228WS02006109        3.20      4.12      3.20      6.05         3.20
  WS02006116WS02004401        0.57      0.57      0.58      0.46         0.45
  WS02006115WS02006116        0.36      0.36      0.36      0.27         0.27
  WS02006112WS02006115        0.32      0.32      1.56      0.01         0.01
  WS02006111WS02006112        0.01      0.01      5.56      0.01         0.01
  WS02006110WS02006113        0.01      0.01      3.75      0.01         0.01
  WS02006109WS02006110        1.46      1.46      4.12      1.46         0.01
  WS02004411WS02004412        0.01      0.01      0.01      0.54         0.01
  WS02004401WS02004402        0.58      0.58      0.62      0.01         0.01
  WS02004410WS02004411        0.01      0.01      0.01      0.42         0.01
  WS02004409WS02004410        0.01      0.01      0.01      0.29         0.01
  WS02004406WS02004407        0.01      0.01      0.74      0.01         0.01
  WS02004405WS02004406        0.74      0.77      0.74      1.51         0.74
  WS02004404WS02004405        0.77      0.83      0.77      6.25         0.77
  WS02004403WS02004404        0.63      0.63      0.83      0.01         0.01
  WS02004402WS02004403        0.62      0.62      0.63      0.57         0.55
  WS02003072WS02003073        0.01      0.01      0.01      6.03         0.01
  HS02004876HS02004881        0.01      0.01      0.01      0.49         0.01
  HS02004785HS02004788        0.01      0.01      0.01      0.35         0.01
  HS02004480HS02004478        0.01      0.01      0.01      0.79         0.01
  YS02001759YS02001757        6.09      6.09      6.12      0.01         0.01
  YS02001762YS02001759        6.09      6.09      6.09      0.01         0.01
  YS02001765YS02001762        6.08      6.08      6.09      0.01         0.01
  YS02001770YS02001767        6.07      6.07      6.07      0.49         0.87
  YS02001774YS02001770        6.07      6.07      6.08      0.01         0.01
  YS02001779YS02001774        6.04      6.04      6.08      0.01         0.01
  YS02001649YS02001757        6.09      6.09      6.12      0.01         0.01
  YS02001767YS02001765        6.07      6.07      6.08      0.01         0.01
  YS02006561YS02001783        1.60      1.60      2.13      0.01         0.01
  YS02001783YS02001784        2.11      2.13      2.18      2.02         1.92
  YS02001784YS02001785        2.06      2.18      2.06      2.72         2.06
  YS02001788YS02001790        2.03      2.03      3.46      0.01         0.01
  YS02001790YS02001791        3.46      3.46      3.57      1.53         1.45
  YS02001791YS02001793        3.57      3.57      3.68      0.01         0.01
  YS02001910YS02001907        1.94      1.94      2.25      0.01         0.01
  YS02001786YS02001788        2.03      2.06      2.03      2.41         2.03
  YS02001915YS02001910        1.75      1.75      1.94      0.01         0.01
  YS02001918YS02001915        1.51      1.51      1.75      0.01         0.01
  YS02001923YS02001920        1.34      1.34      1.54      0.01         0.01
  YS02001926YS02001923        0.01      0.01      0.01      0.01         0.01
  YS02001929YS02001926        0.01      0.01      0.01      0.01         0.01
  YS02001920YS02001918        1.51      1.51      1.54      0.01         0.01
  YS02001629YS02163301        6.06      6.06      6.07      0.01         0.01
  YS02001619YS02001622        6.02      6.02      6.02      0.01         0.01
  YS02001622YS02001625        6.02      6.02      6.05      0.01         0.01
  YS02001625YS02001629        6.02      6.02      6.05      0.01         0.01
  YS02163301YS02001633        6.07      6.07      6.08      0.01         0.01
  YS02163601YS02164001        6.08      6.08      6.09      0.01         0.01
  YS02164001YS02001641        6.08      6.08      6.08      0.01         0.02
  YS02001641YS02001644        6.08      6.08      6.08      2.21         2.05
  YS02001647YS02001649        6.05      6.05      6.09      0.01         0.01
  YS02006553YS02006556        2.11      2.11      2.30      0.01         0.01
  YS02006556YS02006558        2.17      2.17      2.36      0.01         0.01
  YSB6556YSB1171              0.01      0.01      0.14      0.01         0.01
  YS02001907YS02006553        2.76      2.76      2.95      0.01         0.01
  YS02006558YS02006561        1.78      2.09      1.78      2.63         1.78
  YS02001633YS02163601        6.08      6.08      6.09      0.01         0.01
  YS02001644YS02001647        6.05      6.05      6.08      0.01         0.01
  YS02001745YS02001748        0.01      0.01      5.99      0.01         0.01
  YS02001748YS02001751        6.00      6.00      6.02      0.01         0.01
  YS02001751YS02001754        6.02      6.02      6.04      0.01         0.01
  YS02001754YS02001757        6.05      6.05      6.12      0.01         0.01
  YS02001882YS02001884        1.76      1.76      1.79      0.01         0.01
  YS02001884YS02001887        1.84      1.84      1.87      0.01         0.01
  YS02001890YS02001895        1.73      1.73      1.96      0.01         0.01
  YS02001895YS02001898        1.71      1.72      1.73      0.01         0.01
  YS02001898YS02001901        1.74      1.74      1.83      0.01         0.01
  YS02001901YS02001904        1.81      1.81      1.83      0.01         0.01
  YS02001904YS02001907        1.81      1.81      2.32      0.01         0.01
  YS02001887YS02001890        1.90      1.90      1.92      0.20         0.01
  YS02001652YS02001649        6.06      6.06      6.09      0.01         0.01
  YS02001655YS02001652        6.02      6.02      6.05      0.01         0.01
  YS02001658YS02001655        5.99      5.99      6.02      0.01         0.01
  YS02001661YS02001658        0.31      0.31      5.99      0.01         0.01
  YS02001664YS02001661        0.01      0.01      1.56      0.01         0.01
  YS02001793JiankangQianchi        3.65      3.65      4.06      0.01         0.01
  YS02001757CaochengTiaoxuchi        5.54      5.54      6.12      0.01         0.01
  
  
  ***************
  Pumping Summary
  ***************
  
  ---------------------------------------------------------------------------------------------------------
                                                  Min       Avg       Max     Total     Power    % Time Off
                        Percent   Number of      Flow      Flow      Flow    Volume     Usage    Pump Curve
  Pump                 Utilized   Start-Ups       LPS       LPS       LPS  10^6 ltr     Kw-hr    Low   High
  ---------------------------------------------------------------------------------------------------------
  CC-Pump-1               79.27           4      0.00    145.38    200.00     3.249      4.55    0.0    5.6
  CC-Pump-2               68.63           8      0.00    140.86    200.00     2.769      4.36    0.0    6.5
  JK-Pump-1               74.46           5      0.00    153.57    300.00     2.458     29.38    0.0    0.0
  JK-Pump-2               93.61           4      0.00    195.30    300.00     4.254     41.13    0.0    0.0
  XR-Pump-1               93.61           5      0.00     79.25     95.00     2.052     13.91    0.0    0.0
  XR-Pump-2               74.45           7      0.00     74.00     95.00     1.539     10.75    0.0    0.0
  XR-Pump-3               82.96           9      0.00     68.94     95.00     1.710     12.96    0.0    0.0
  XR-Pump-4               78.71          10      0.00     66.92     95.00     1.511     10.43    0.0    0.0
  

  Analysis begun on:  Wed Dec 22 16:31:43 2021
  Analysis ended on:  Wed Dec 22 16:31:48 2021
  Total elapsed time: 00:00:05