
  EPA STORM WATER MANAGEMENT MODEL - VERSION 5.1 (Build 5.3.0.dev0)
  --------------------------------------------------------------

  WARNING 04: minimum elevation drop used for Conduit WS02004404WS02004405
  WARNING 03: negative offset ignored for Link YS02001904YS02001907
  
  *********************************************************
  NOTE: The summary statistics displayed in this report are
  based on results found at every computational time step,  
  not just on results from each reporting time step.
  *********************************************************
  
  ****************
  Analysis Options
  ****************
  Flow Units ............... LPS
  Process Models:
    Rainfall/Runoff ........ YES
    RDII ................... NO
    Snowmelt ............... NO
    Groundwater ............ NO
    Flow Routing ........... YES
    Ponding Allowed ........ NO
    Water Quality .......... NO
  Infiltration Method ...... HORTON
  Flow Routing Method ...... DYNWAVE
  Surcharge Method ......... EXTRAN
  Starting Date ............ 08/28/2015 08:00:00
  Ending Date .............. 08/28/2015 15:50:00
  Antecedent Dry Days ...... 8.0
  Report Time Step ......... 00:01:00
  Wet Time Step ............ 00:01:00
  Dry Time Step ............ 00:01:00
  Routing Time Step ........ 5.00 sec
  Variable Time Step ....... YES
  Maximum Trials ........... 8
  Number of Threads ........ 4
  Head Tolerance ........... 0.001500 m
  
  
  **************************        Volume         Depth
  Runoff Quantity Continuity     hectare-m            mm
  **************************     ---------       -------
  Total Precipitation ......         7.641        16.729
  Evaporation Loss .........         0.000         0.000
  Infiltration Loss ........         1.880         4.117
  Surface Runoff ...........         4.668        10.221
  Final Storage ............         1.093         2.393
  Continuity Error (%) .....        -0.013
  
  
  **************************        Volume        Volume
  Flow Routing Continuity        hectare-m      10^6 ltr
  **************************     ---------     ---------
  Dry Weather Inflow .......         0.616         6.165
  Wet Weather Inflow .......         4.667        46.670
  Groundwater Inflow .......         0.000         0.000
  RDII Inflow ..............         0.000         0.000
  External Inflow ..........         0.102         1.024
  External Outflow .........         2.461        24.611
  Flooding Loss ............         2.466        24.663
  Evaporation Loss .........         0.000         0.000
  Exfiltration Loss ........         0.000         0.000
  Initial Stored Volume ....         0.076         0.761
  Final Stored Volume ......         0.619         6.187
  Continuity Error (%) .....        -1.541
  
  
  *************************
  Highest Continuity Errors
  *************************
  Node HS02004842 (12.71%)
  Node YS02001884 (12.06%)
  Node JK-storage (-7.41%)
  Node HS02004817 (2.32%)
  Node YSB1171 (2.18%)
  
  
  ***************************
  Time-Step Critical Elements
  ***************************
  Link 3 (54.04%)
  Link WS02006252WS02006251 (37.43%)
  Link WS02006238WS02006235 (3.63%)
  
  
  ********************************
  Highest Flow Instability Indexes
  ********************************
  Link YS02163301YS02001633 (42)
  Link YS02163601YS02164001 (42)
  Link YS02001629YS02163301 (41)
  Link YS02001619YS02001622 (39)
  Link YS02164001YS02001641 (38)
  
  
  *************************
  Routing Time Step Summary
  *************************
  Minimum Time Step           :     0.43 sec
  Average Time Step           :     0.72 sec
  Maximum Time Step           :     5.00 sec
  Percent in Steady State     :    -0.00
  Average Iterations per Step :     4.63
  Percent Not Converging      :    20.81
  
  
  ***************************
  Subcatchment Runoff Summary
  ***************************
  
  ------------------------------------------------------------------------------------------------------------------------------
                            Total      Total      Total      Total     Imperv       Perv      Total       Total     Peak  Runoff
                           Precip      Runon       Evap      Infil     Runoff     Runoff     Runoff      Runoff   Runoff   Coeff
  Subcatchment                 mm         mm         mm         mm         mm         mm         mm    10^6 ltr      LPS
  ------------------------------------------------------------------------------------------------------------------------------
  sub0                      16.73       0.00       0.00       0.97      14.29       0.20      14.50        0.01     3.66   0.867
  sub1                      16.73       0.00       0.00       1.58      13.63       0.26      13.89        0.09    24.51   0.830
  sub2                      16.73       0.00       0.00       5.80       9.63       0.39      10.02        0.09    22.91   0.599
  sub3                      16.73       0.00       0.00       5.88       9.59       0.31       9.90        0.22    50.49   0.592
  sub4                      16.73       0.00       0.00       1.65      13.47       0.19      13.66        0.28    60.01   0.817
  sub5                      16.73       0.00       0.00       0.99      14.24       0.18      14.42        0.16    43.61   0.862
  sub7                      16.73       0.00       0.00       1.26      13.97       0.24      14.21        0.05    13.82   0.849
  sub8                      16.73       0.00       0.00       1.27      13.96       0.23      14.19        0.09    25.44   0.848
  sub9                      16.73       0.00       0.00       1.27      13.96       0.23      14.19        0.07    19.02   0.848
  sub10                     16.73       0.00       0.00       1.13      14.10       0.21      14.30        0.16    42.73   0.855
  sub11                     16.73       0.00       0.00       1.12      14.11       0.21      14.33        0.17    47.25   0.857
  sub12                     16.73       0.00       0.00       1.83      13.37       0.35      13.71        0.12    35.87   0.820
  sub14                     16.73       0.00       0.00       1.27      13.95       0.23      14.19        0.14    37.43   0.848
  sub15                     16.73       0.00       0.00       4.53      10.73       0.49      11.22        0.19    51.47   0.671
  sub16                     16.73       0.00       0.00       4.88      10.29       0.64      10.93        0.11    32.57   0.653
  sub17                     16.73       0.00       0.00       4.74      10.44       0.61      11.05        0.09    26.81   0.661
  sub22                     16.73       0.00       0.00       6.60       8.75       0.59       9.34        0.59   160.16   0.558
  sub23                     16.73       0.00       0.00       5.59       9.67       0.60      10.27        0.49   134.74   0.614
  sub60                     16.73       0.00       0.00       1.94      11.65       0.06      11.71        3.55   386.89   0.700
  sub61                     16.73       0.00       0.00       2.75      11.65       0.09      11.73        3.62   476.87   0.701
  sub62                     16.73       0.00       0.00       1.26      12.72       0.07      12.79        3.93   491.27   0.765
  sub63                     16.73       0.00       0.00       4.75      10.14       0.10      10.23        3.10   437.54   0.612
  sub64                     16.73       0.00       0.00       2.45      11.19       0.06      11.26        3.42   367.58   0.673
  sub65                     16.73       0.00       0.00       2.11      11.40       0.06      11.46        3.52   372.98   0.685
  sub66                     16.73       0.00       0.00       4.79       9.55       0.06       9.61        2.95   336.52   0.575
  sub67                     16.73       0.00       0.00       1.24      13.25       0.09      13.35        4.12   605.48   0.798
  sub68                     16.73       0.00       0.00       2.25      12.20       0.10      12.30        3.78   521.64   0.735
  sub69                     16.73       0.00       0.00       2.37      12.50       0.14      12.64        2.95   482.20   0.755
  sub70                     16.73      12.90       0.00       8.98      17.16       1.09      18.25        4.18   460.88   0.616
  sub71                     16.73       0.00       0.00       1.27      12.46       0.07      12.53        2.96   345.19   0.749
  sub72                     16.73       0.00       0.00       1.14      10.39       0.03      10.43        2.12   185.81   0.623
  sub73                     16.73      17.77       0.00       9.78      19.72       1.38      21.10        4.96   482.28   0.612
  sub74                     16.73       0.00       0.00      12.48       3.71       0.07       3.78        1.51   261.10   0.226
  
  
  ******************
  Node Depth Summary
  ******************
  
  ---------------------------------------------------------------------------------
                                 Average  Maximum  Maximum  Time of Max    Reported
                                   Depth    Depth      HGL   Occurrence   Max Depth
  Node                 Type       Meters   Meters   Meters  days hr:min      Meters
  ---------------------------------------------------------------------------------
  WS02001211           JUNCTION     0.67     0.81     5.64     0  02:33        0.81
  WS02001212           JUNCTION     0.40     0.53     5.59     0  02:12        0.53
  WS02001213           JUNCTION     0.65     0.80     5.56     0  02:13        0.80
  WS02003069           JUNCTION     0.48     0.65     5.24     0  02:13        0.65
  WS02003072           JUNCTION     0.54     0.70     5.07     0  02:14        0.70
  WS02003073           JUNCTION     0.33     0.44     4.50     0  02:14        0.44
  WS02003060           JUNCTION     0.43     0.58     5.51     0  02:13        0.58
  WS02003066           JUNCTION     0.26     0.36     5.91     0  01:56        0.36
  WS02003059           JUNCTION     0.71     0.85     5.54     0  02:12        0.85
  WS02003067           JUNCTION     0.63     0.79     6.11     0  01:55        0.79
  WS02004401           JUNCTION     0.76     1.13     7.13     0  01:52        1.13
  WS02004402           JUNCTION     0.79     1.13     7.09     0  01:52        1.13
  WS02004403           JUNCTION     0.80     1.12     7.05     0  01:51        1.11
  WS02004404           JUNCTION     0.88     1.17     7.02     0  01:51        1.17
  WS02004406           JUNCTION     0.87     1.13     6.96     0  01:48        1.12
  WS02004409           JUNCTION     0.57     0.87     6.64     0  01:55        0.87
  WS02004410           JUNCTION     0.59     0.86     6.58     0  01:55        0.86
  WS02004411           JUNCTION     0.60     0.86     6.54     0  01:55        0.86
  WS02004412           JUNCTION     0.61     0.84     6.48     0  01:55        0.84
  WS02004413           JUNCTION     0.76     0.98     6.45     0  01:56        0.98
  WS02004405           JUNCTION     0.87     1.15     7.00     0  01:51        1.15
  WS02006109           JUNCTION     0.85     1.28     7.90     0  01:54        1.28
  WS02006110           JUNCTION     0.82     1.13     7.71     0  01:54        1.13
  WS02006111           JUNCTION     0.27     0.64     7.35     0  01:53        0.64
  WS02006112           JUNCTION     0.94     1.41     7.29     0  01:54        1.40
  WS02006113           JUNCTION     0.39     0.63     7.53     0  01:53        0.63
  WS02006115           JUNCTION     0.66     1.08     7.22     0  01:53        1.08
  WS02006116           JUNCTION     0.74     1.14     7.18     0  01:53        1.14
  WS02006230           JUNCTION     0.87     1.63     8.37     0  01:44        1.41
  WS02006231           JUNCTION     0.59     1.10     8.23     0  01:44        1.04
  WS02006232           JUNCTION     0.73     1.33     8.37     0  01:45        1.13
  WS02006234           JUNCTION     0.66     1.34     8.50     0  01:44        1.11
  WS02006235           JUNCTION     0.69     1.30     8.46     0  01:45        1.22
  WS02006238           JUNCTION     0.71     1.31     8.46     0  01:45        1.25
  WS02006240           JUNCTION     0.62     1.53     8.83     0  01:44        1.26
  WS02006242           JUNCTION     0.68     1.55     8.82     0  01:44        1.15
  WS02006243           JUNCTION     0.56     1.48     8.90     0  01:44        0.84
  WS02006245           JUNCTION     0.53     1.40     8.89     0  01:45        0.79
  WS02006247           JUNCTION     0.55     1.47     8.97     0  01:45        0.78
  WS02006248           JUNCTION     0.49     0.71     8.29     0  01:50        0.71
  WS02006249           JUNCTION     0.51     0.70     8.30     0  01:50        0.70
  WS02006239           JUNCTION     0.68     1.51     8.72     0  01:44        1.28
  WS02006251           JUNCTION     0.50     0.80     8.47     0  01:50        0.79
  WS02006252           JUNCTION     0.42     0.59     8.84     0  04:20        0.59
  WS02006253           JUNCTION     0.53     0.83     8.48     0  01:50        0.83
  WS02006256           JUNCTION     1.11     1.24     8.17     0  01:50        1.24
  WS02004138           JUNCTION     0.15     0.19     7.44     0  01:10        0.19
  WS02004407           JUNCTION     0.26     0.37     6.68     0  01:54        0.37
  WS02006228           JUNCTION     0.87     1.41     8.06     0  01:54        1.40
  WS02006229           JUNCTION     0.86     1.45     8.14     0  01:52        1.45
  WS02006280           JUNCTION     0.08     0.25     8.52     0  01:55        0.25
  WS02006284           JUNCTION     0.39     0.64     9.04     0  01:55        0.64
  WS02006287           JUNCTION     0.12     0.38     9.33     0  01:54        0.38
  WSF200               JUNCTION     0.26     0.39     5.62     0  02:10        0.39
  HS02004901           JUNCTION     0.14     0.36    10.18     0  01:52        0.36
  HS02004881           JUNCTION     0.01     0.05     9.08     0  01:54        0.05
  HS02004876           JUNCTION     0.05     0.16     9.19     0  01:55        0.16
  HS02004870           JUNCTION     0.02     0.09     9.38     0  01:55        0.09
  HS02004862           JUNCTION     0.03     0.11     9.49     0  01:55        0.11
  HS02004856           JUNCTION     0.09     0.15     9.58     0  01:55        0.15
  HS02004852           JUNCTION     0.02     0.07     9.59     0  01:55        0.07
  HS02004848           JUNCTION     0.02     0.07     9.67     0  01:55        0.07
  HS02004842           JUNCTION     0.34     0.40     9.67     0  01:55        0.40
  HS02004837           JUNCTION     0.03     0.09     9.67     0  01:55        0.09
  HS02004830           JUNCTION     0.05     0.10     9.57     0  01:56        0.10
  HS02004824           JUNCTION     0.03     0.12     9.53     0  01:55        0.12
  HS02004817           JUNCTION     0.46     0.69     9.53     0  01:55        0.69
  HS02004807           JUNCTION     0.15     0.36     9.53     0  01:55        0.36
  HS02004802           JUNCTION     0.18     0.39     9.52     0  01:55        0.39
  HS02004799           JUNCTION     0.15     0.45     9.66     0  01:53        0.45
  HS02004792           JUNCTION     0.05     0.20     9.73     0  01:52        0.20
  HS02004788           JUNCTION     0.04     0.15    10.05     0  01:53        0.15
  HS02004785           JUNCTION     0.06     0.23    10.14     0  01:52        0.23
  HS02004777           JUNCTION     0.17     0.37    10.17     0  01:52        0.37
  HS02004770           JUNCTION     0.14     0.35    10.18     0  01:52        0.35
  HS02004480           JUNCTION     0.10     0.37     9.61     0  01:53        0.37
  HS02004479           JUNCTION     0.14     0.41     9.61     0  01:53        0.41
  HS02004478           JUNCTION     0.08     0.27     9.50     0  01:54        0.27
  YS02001745           JUNCTION     0.76     0.93     8.44     0  02:50        0.93
  YS02001748           JUNCTION     1.17     1.74     8.82     0  01:50        1.36
  YS02001751           JUNCTION     1.35     2.03     8.90     0  01:48        1.55
  YS02001754           JUNCTION     1.61     1.99     8.60     0  01:48        1.82
  YS02001762           JUNCTION     1.81     2.04     8.44     0  02:34        2.03
  YS02001765           JUNCTION     1.76     1.99     8.44     0  02:41        1.98
  YS02001767           JUNCTION     1.73     1.94     8.43     0  02:41        1.93
  YS02001770           JUNCTION     1.72     1.93     8.42     0  02:45        1.92
  YS02001774           JUNCTION     1.79     1.98     8.41     0  02:44        1.97
  YS02001779           JUNCTION     1.53     1.68     8.37     0  01:47        1.68
  YS02001882           JUNCTION     0.72     1.64     8.36     0  01:58        1.62
  YS02001884           JUNCTION     0.81     1.73     8.35     0  01:58        1.73
  YS02001759           JUNCTION     1.85     2.08     8.45     0  02:42        2.07
  YS02001887           JUNCTION     0.89     1.81     8.35     0  02:12        1.80
  YS02001890           JUNCTION     0.92     1.81     8.32     0  01:58        1.81
  YS02001898           JUNCTION     0.68     1.57     8.30     0  01:58        1.56
  YS02001901           JUNCTION     0.80     1.68     8.29     0  01:58        1.67
  YS02001904           JUNCTION     0.78     1.64     8.27     0  01:58        1.63
  YS02001907           JUNCTION     1.11     1.96     8.25     0  01:58        1.96
  YS02001910           JUNCTION     0.90     1.79     8.30     0  02:00        1.78
  YS02001915           JUNCTION     0.70     1.62     8.33     0  02:00        1.60
  YS02001918           JUNCTION     0.44     1.31     8.38     0  01:59        1.30
  YS02001619           JUNCTION     1.32     1.61     8.54     0  01:48        1.48
  YS02001629           JUNCTION     1.68     1.85     8.40     0  01:47        1.85
  YS02001641           JUNCTION     1.77     1.93     8.37     0  02:19        1.93
  YS02001644           JUNCTION     1.77     1.92     8.35     0  01:51        1.92
  YS02001652           JUNCTION     1.62     2.16     8.76     0  01:54        2.03
  YS02001655           JUNCTION     1.38     2.20     9.05     0  02:20        1.95
  YS02001920           JUNCTION     0.53     1.40     8.41     0  01:59        1.38
  YS02001923           JUNCTION     0.36     1.16     8.42     0  01:59        1.15
  YS02001926           JUNCTION     0.37     1.02     8.47     0  01:59        0.96
  YS02001929           JUNCTION     0.23     0.77     8.47     0  01:59        0.71
  YS02001658           JUNCTION     1.11     2.30     9.44     0  02:20        1.81
  YS02001661           JUNCTION     0.87     2.46     9.86     0  02:18        1.67
  YS02001664           JUNCTION     0.38     0.57     8.49     0  03:41        0.56
  YS02001622           JUNCTION     1.34     1.62     8.52     0  01:47        1.50
  YS02001633           JUNCTION     1.77     1.95     8.40     0  02:10        1.94
  YS02001649           JUNCTION     1.82     2.05     8.44     0  01:54        2.05
  YS02001757           JUNCTION     1.94     2.18     8.44     0  02:39        2.16
  YS02001895           JUNCTION     0.68     1.57     8.31     0  02:00        1.56
  YS02001625           JUNCTION     1.63     1.78     8.38     0  01:46        1.78
  YS02163301           JUNCTION     1.71     1.91     8.43     0  01:47        1.88
  YS02163601           JUNCTION     1.82     1.99     8.39     0  02:06        1.98
  YS02164001           JUNCTION     1.75     1.92     8.37     0  02:29        1.91
  YS02001647           JUNCTION     1.61     1.80     8.41     0  02:09        1.80
  YSB1154              JUNCTION     0.28     0.56     9.62     0  01:53        0.56
  YSB6556              JUNCTION     0.17     0.44     9.61     0  01:53        0.44
  YSB1174              JUNCTION     0.23     0.50     9.61     0  01:53        0.50
  YSB1171              JUNCTION     0.43     0.71     9.61     0  01:53        0.71
  YS02006553           JUNCTION     1.11     2.15     8.44     0  02:00        1.97
  YS02006561           JUNCTION     0.43     1.74     8.40     0  02:00        1.09
  YS02006556           JUNCTION     1.07     2.35     8.66     0  02:00        1.95
  YS02006558           JUNCTION     1.11     2.48     8.74     0  02:00        1.99
  YS02001783           JUNCTION     0.68     2.27     8.42     0  02:00        1.48
  YS02001784           JUNCTION     0.69     2.29     8.36     0  02:00        1.42
  YS02001786           JUNCTION     0.61     2.23     8.26     0  02:00        1.27
  YS02001788           JUNCTION     0.54     2.28     8.26     0  02:00        1.13
  YS02001790           JUNCTION     0.66     1.96     7.60     0  02:00        1.29
  YS02001791           JUNCTION     0.63     1.84     7.31     0  02:00        1.27
  YS02001793           JUNCTION     0.90     1.90     6.73     0  02:00        1.80
  WS02004139           JUNCTION     0.61     0.75     5.66     0  02:33        0.75
  WSC                  OUTFALL      0.33     0.44     1.11     0  02:15        0.44
  3                    OUTFALL      0.13     0.24     6.24     0  01:50        0.23
  4                    OUTFALL      0.05     0.20     7.20     0  01:50        0.20
  5                    OUTFALL      0.00     0.00     5.00     0  00:00        0.00
  JK-storage           STORAGE      3.14     5.80     6.60     0  02:00        5.80
  CC-storage           STORAGE      1.15     1.41     8.41     0  02:51        1.41
  XR-storage           STORAGE      7.08     7.72     5.72     0  02:06        7.72
  
  
  *******************
  Node Inflow Summary
  *******************
  
  -------------------------------------------------------------------------------------------------
                                  Maximum  Maximum                  Lateral       Total        Flow
                                  Lateral    Total  Time of Max      Inflow      Inflow     Balance
                                   Inflow   Inflow   Occurrence      Volume      Volume       Error
  Node                 Type           LPS      LPS  days hr:min    10^6 ltr    10^6 ltr     Percent
  -------------------------------------------------------------------------------------------------
  WS02001211           JUNCTION      7.35   388.44     0  02:37       0.207         7.2       0.302
  WS02001212           JUNCTION      0.00   389.32     0  02:36           0        7.18       0.168
  WS02001213           JUNCTION      0.00   389.99     0  02:36           0        7.16       0.241
  WS02003069           JUNCTION      0.32  1136.69     0  02:13     0.00902        17.6       0.121
  WS02003072           JUNCTION      0.00  1136.45     0  02:14           0        17.6       0.160
  WS02003073           JUNCTION      1.82  1138.88     0  02:14      0.0514        17.6       0.173
  WS02003060           JUNCTION     16.53  1135.70     0  02:12       0.466        17.6       0.116
  WS02003066           JUNCTION      0.00   824.62     0  01:56           0          10       0.040
  WS02003059           JUNCTION      0.00   391.01     0  02:35           0        7.15       0.403
  WS02003067           JUNCTION      0.00   824.52     0  01:56           0          10       0.087
  WS02004401           JUNCTION      0.00   826.10     0  01:54           0        10.3       0.206
  WS02004402           JUNCTION      0.00   826.02     0  01:54           0        10.2       0.194
  WS02004403           JUNCTION      0.00   826.08     0  01:53           0        10.2       0.176
  WS02004404           JUNCTION      0.16   826.24     0  01:53     0.00457        10.2       0.133
  WS02004406           JUNCTION      0.00   826.27     0  01:54           0        10.2       0.324
  WS02004409           JUNCTION      0.00   826.12     0  01:54           0        10.1       0.150
  WS02004410           JUNCTION      0.00   825.01     0  01:55           0        10.1       0.168
  WS02004411           JUNCTION      0.00   824.61     0  01:55           0        10.1       0.173
  WS02004412           JUNCTION      0.00   824.50     0  01:55           0        10.1       0.188
  WS02004413           JUNCTION      0.00   824.50     0  01:56           0        10.1       0.280
  WS02004405           JUNCTION      0.04   826.27     0  01:53     0.00107        10.2       0.199
  WS02006109           JUNCTION      1.23   800.19     0  01:52      0.0347        10.3       0.217
  WS02006110           JUNCTION      0.00   800.19     0  01:52           0        10.3       0.195
  WS02006111           JUNCTION      0.00   799.83     0  01:53           0        10.2       0.044
  WS02006112           JUNCTION     26.81   826.11     0  01:54      0.0948        10.3       0.278
  WS02006113           JUNCTION      0.00   800.19     0  01:52           0        10.3       0.098
  WS02006115           JUNCTION      0.00   826.07     0  01:54           0        10.3       0.192
  WS02006116           JUNCTION      0.00   826.10     0  01:54           0        10.3       0.182
  WS02006230           JUNCTION     10.28   403.00     0  05:21        0.29        7.61       0.189
  WS02006231           JUNCTION      0.00   392.84     0  05:12           0        7.32       0.136
  WS02006232           JUNCTION      0.00   392.92     0  05:12           0        7.34       0.223
  WS02006234           JUNCTION      0.00   394.72     0  05:12           0        7.35       0.111
  WS02006235           JUNCTION      0.00   394.78     0  05:12           0        7.41       0.150
  WS02006238           JUNCTION      0.00   343.50     0  07:00           0        5.53       0.142
  WS02006240           JUNCTION      0.00   337.80     0  07:00           0        5.53       0.218
  WS02006242           JUNCTION      0.00   335.93     0  06:31           0        5.53       0.265
  WS02006243           JUNCTION      0.00   335.48     0  06:31           0        5.53       0.085
  WS02006245           JUNCTION      0.00   334.74     0  06:31           0        5.54       0.178
  WS02006247           JUNCTION      0.00   337.34     0  01:45           0        5.54       0.132
  WS02006248           JUNCTION      0.00   344.86     0  01:45           0        5.55       0.085
  WS02006249           JUNCTION      0.00   522.68     0  01:50           0        6.66       0.139
  WS02006239           JUNCTION      0.00   341.76     0  07:00           0        5.53       0.211
  WS02006251           JUNCTION      0.08   524.62     0  01:50     0.00217        6.69       0.135
  WS02006252           JUNCTION      0.00   400.00     0  04:10           0        6.13       0.007
  WS02006253           JUNCTION      3.66   142.87     0  01:54      0.0117       0.558       0.626
  WS02006256           JUNCTION      0.00   600.08     0  01:50           0        7.85       0.043
  WS02004138           JUNCTION      0.00   380.00     0  01:10           0        7.01       0.051
  WS02004407           JUNCTION      0.00   826.39     0  01:53           0        10.1       0.070
  WS02006228           JUNCTION      0.00   798.96     0  01:52           0        10.3       0.148
  WS02006229           JUNCTION      0.00   799.53     0  01:52           0        10.3       0.131
  WS02006280           JUNCTION      0.00   656.04     0  01:55           0         2.7       0.001
  WS02006284           JUNCTION      0.10   655.96     0  01:55      0.0027         2.7       0.039
  WS02006287           JUNCTION      0.00   655.81     0  01:54           0         2.7       0.027
  WSF200               JUNCTION      0.00   824.56     0  01:56           0          10       0.038
  HS02004901           JUNCTION     32.57    32.57     0  01:50       0.114       0.115       1.559
  HS02004881           JUNCTION     13.82   139.59     0  01:54      0.0479       0.529       0.085
  HS02004876           JUNCTION     24.51   126.37     0  01:54      0.0923       0.482       0.114
  HS02004870           JUNCTION     25.44   102.13     0  01:54      0.0907        0.39       0.028
  HS02004862           JUNCTION     23.11    77.53     0  01:55       0.099       0.299       0.057
  HS02004856           JUNCTION     19.02    54.51     0  01:55      0.0682       0.202       0.718
  HS02004852           JUNCTION      0.00    36.10     0  01:55           0       0.134       0.042
  HS02004848           JUNCTION     50.49    50.49     0  01:57       0.223       0.223       0.021
  HS02004842           JUNCTION      0.00    15.55     0  02:06           0       0.102      14.562
  HS02004837           JUNCTION     49.08    62.50     0  01:55       0.337       0.426       0.191
  HS02004830           JUNCTION      0.15    62.61     0  01:55     0.00423       0.416       0.298
  HS02004824           JUNCTION     60.06   122.20     0  01:58       0.286       0.702       0.077
  HS02004817           JUNCTION      0.60   124.03     0  01:59      0.0169       0.718       2.378
  HS02004807           JUNCTION     47.25   168.28     0  01:57       0.166       0.868       0.499
  HS02004802           JUNCTION      0.00   169.24     0  01:58           0       0.865       0.462
  HS02004799           JUNCTION     37.43   414.52     0  01:52       0.135        1.57       0.166
  HS02004792           JUNCTION    160.44   377.30     0  01:52       0.598        1.44       0.028
  HS02004788           JUNCTION     53.14   218.54     0  01:52        0.24       0.839       0.046
  HS02004785           JUNCTION      0.15   165.59     0  01:52     0.00423       0.601       0.082
  HS02004777           JUNCTION      0.03   165.80     0  01:51    0.000846       0.601       0.872
  HS02004770           JUNCTION    134.74   166.64     0  01:51        0.49       0.602       0.516
  HS02004480           JUNCTION      0.00   492.22     0  01:53           0        1.85       0.064
  HS02004479           JUNCTION      0.00    78.00     0  01:53           0       0.292       0.252
  HS02004478           JUNCTION      0.00   655.76     0  01:54           0         2.7       0.013
  YS02001745           JUNCTION    386.89   386.89     0  02:16        3.55        3.55       0.289
  YS02001748           JUNCTION      0.04   396.09     0  02:16     0.00127        3.54       0.660
  YS02001751           JUNCTION      0.01   395.98     0  02:16     0.00031        3.52       0.681
  YS02001754           JUNCTION      0.26   396.17     0  02:16     0.00733         3.5       0.702
  YS02001762           JUNCTION      0.00   437.69     0  02:04           0        2.17       0.975
  YS02001765           JUNCTION      0.00   437.45     0  02:04           0        2.17       1.125
  YS02001767           JUNCTION      0.54   437.72     0  02:04      0.0151        2.19       1.645
  YS02001770           JUNCTION    491.42   613.58     0  02:53        3.94        4.38       0.721
  YS02001774           JUNCTION      0.00   613.61     0  02:53           0        2.62       0.958
  YS02001779           JUNCTION      0.01   613.65     0  02:53    0.000141         2.6       0.593
  YS02001882           JUNCTION      0.00    17.98     0  01:53           0      0.0178      14.819
  YS02001884           JUNCTION      0.00    42.50     0  01:53           0      0.0528      13.712
  YS02001759           JUNCTION    476.91   874.05     0  02:05        3.62        5.31       0.429
  YS02001887           JUNCTION    605.93   606.10     0  02:15        4.13        4.16       0.213
  YS02001890           JUNCTION      0.00   606.13     0  02:15           0        4.11       0.231
  YS02001898           JUNCTION      0.00   525.32     0  01:58           0           4       0.085
  YS02001901           JUNCTION      0.00   525.78     0  01:58           0           4       0.175
  YS02001904           JUNCTION      0.00   526.37     0  01:58           0        3.99       0.161
  YS02001907           JUNCTION      0.00  1082.74     0  02:00           0        9.13       0.269
  YS02001910           JUNCTION      0.00   564.78     0  02:00           0        5.15       0.238
  YS02001915           JUNCTION    345.21   564.77     0  02:00        2.96        5.19       0.118
  YS02001918           JUNCTION      0.00   280.81     0  02:00           0        2.25       0.091
  YS02001619           JUNCTION    336.52   336.52     0  02:16        2.95        2.95       0.413
  YS02001629           JUNCTION      0.00   223.72     0  01:47           0        1.44       2.024
  YS02001641           JUNCTION      0.00   410.39     0  01:48           0        4.85       0.432
  YS02001644           JUNCTION    367.62  1410.87     0  02:53        3.42        11.5       0.225
  YS02001652           JUNCTION      0.00   477.52     0  02:16           0        3.05       0.749
  YS02001655           JUNCTION      0.15   477.29     0  02:16     0.00434        3.08       0.832
  YS02001920           JUNCTION      2.87   280.74     0  02:00      0.0809        2.23       0.143
  YS02001923           JUNCTION      0.04   290.06     0  02:00     0.00106        2.14       0.045
  YS02001926           JUNCTION      0.05   206.82     0  02:00     0.00147        2.13       0.156
  YS02001929           JUNCTION    185.81   185.81     0  03:01        2.12        2.12       0.029
  YS02001658           JUNCTION      0.00   509.45     0  02:16           0        3.09       0.745
  YS02001661           JUNCTION      0.00   773.26     0  02:04           0        3.82      -0.060
  YS02001664           JUNCTION    437.54   437.54     0  02:16         3.1        3.82       0.133
  YS02001622           JUNCTION      0.00   336.65     0  02:16           0        2.94       1.092
  YS02001633           JUNCTION    373.18   411.13     0  01:48        3.53        4.92       0.651
  YS02001649           JUNCTION      0.00   968.27     0  02:02           0        6.17       0.599
  YS02001757           JUNCTION      0.00  2140.95     0  02:04           0        11.2       0.828
  YS02001895           JUNCTION      0.00   525.21     0  01:58           0           4       0.132
  YS02001625           JUNCTION      0.00   336.58     0  02:16           0        2.91       1.367
  YS02163301           JUNCTION      0.00   224.41     0  01:48           0        1.44       1.690
  YS02163601           JUNCTION      0.11   411.29     0  01:48      0.0031        4.86       0.617
  YS02164001           JUNCTION      0.00   411.11     0  01:48           0        4.85       0.409
  YS02001647           JUNCTION      0.00   687.69     0  02:52           0        4.99       0.567
  YSB1154              JUNCTION     43.61    43.61     0  01:53       0.163       0.164       0.888
  YSB6556              JUNCTION      0.00    43.64     0  01:53           0       0.165       0.765
  YSB1174              JUNCTION     35.87    35.87     0  01:50        0.12        0.12       1.078
  YSB1171              JUNCTION      0.00    78.03     0  01:52           0       0.291       2.227
  YS02006553           JUNCTION      0.00   700.10     0  01:58           0        7.18       0.217
  YS02006561           JUNCTION      0.00  1143.18     0  02:00           0        10.9       0.008
  YS02006556           JUNCTION      0.00   700.03     0  01:58           0        7.18       0.159
  YS02006558           JUNCTION    522.52  1143.48     0  02:00        3.81          11       0.048
  YS02001783           JUNCTION      0.00  1143.03     0  02:00           0        10.9       0.023
  YS02001784           JUNCTION      1.06  1144.22     0  02:00      0.0299          11       0.036
  YS02001786           JUNCTION      0.06  1144.25     0  02:00     0.00159          11       0.034
  YS02001788           JUNCTION      0.07  1144.89     0  02:00       0.002        10.9       0.018
  YS02001790           JUNCTION      0.15  1154.85     0  01:59     0.00437          11       0.025
  YS02001791           JUNCTION      0.00  1247.40     0  01:59           0        10.9       0.007
  YS02001793           JUNCTION      0.00  1166.82     0  01:58           0        10.9       0.001
  WS02004139           JUNCTION      0.32   380.36     0  01:10     0.00905        7.02       0.370
  WSC                  OUTFALL       0.00  1139.60     0  02:15           0        17.6       0.000
  3                    OUTFALL       0.00   600.30     0  01:50           0        5.94       0.000
  4                    OUTFALL       0.00   336.04     0  01:50           0         1.1       0.000
  5                    OUTFALL       0.00     0.00     0  00:00           0           0       0.000 ltr
  JK-storage           STORAGE       0.00  1124.38     0  01:58           0        11.1      -6.902
  CC-storage           STORAGE       0.00  2141.21     0  02:04           0        9.63       0.618
  XR-storage           STORAGE     844.69   844.69     0  03:01        12.1        12.7      -0.001
  
  
  **********************
  Node Surcharge Summary
  **********************
  
  Surcharging occurs when water rises above the top of the highest conduit.
  ---------------------------------------------------------------------
                                               Max. Height   Min. Depth
                                   Hours       Above Crown    Below Rim
  Node                 Type      Surcharged         Meters       Meters
  ---------------------------------------------------------------------
  WS02004401           JUNCTION        0.58          0.126        1.534
  WS02004402           JUNCTION        0.62          0.127        1.613
  WS02004403           JUNCTION        0.63          0.116        1.914
  WS02004404           JUNCTION        0.84          0.168        2.612
  WS02004406           JUNCTION        0.73          0.131        2.319
  WS02004405           JUNCTION        0.77          0.147        2.653
  WS02006109           JUNCTION        4.05          0.462        1.358
  WS02006110           JUNCTION        1.46          0.218        1.632
  WS02006112           JUNCTION        1.59          0.410        1.270
  WS02006115           JUNCTION        0.31          0.073        2.177
  WS02006116           JUNCTION        0.39          0.078        2.212
  WS02006230           JUNCTION        0.79          0.550        1.020
  WS02006231           JUNCTION        1.09          0.395        1.135
  WS02006232           JUNCTION        4.31          0.629        0.851
  WS02006234           JUNCTION        1.37          0.620        0.620
  WS02006235           JUNCTION        3.30          0.586        0.704
  WS02006238           JUNCTION        3.81          0.592        0.838
  WS02006240           JUNCTION        1.18          0.823        0.567
  WS02006242           JUNCTION        3.14          0.820        0.000
  WS02006243           JUNCTION        0.57          0.770        0.000
  WS02006245           JUNCTION        0.19          0.692        0.158
  WS02006247           JUNCTION        0.18          0.760        0.000
  WS02006239           JUNCTION        1.98          0.774        0.516
  WS02006252           JUNCTION        3.33          0.193        0.907
  WS02006228           JUNCTION        3.86          0.578        1.622
  YS02001748           JUNCTION        5.99          0.664        0.526
  YS02001751           JUNCTION        6.02          1.026        0.174
  YS02001754           JUNCTION        6.04          0.938        0.212
  YS02001762           JUNCTION        6.08          1.042        0.108
  YS02001765           JUNCTION        6.08          0.989        0.111
  YS02001767           JUNCTION        6.07          0.942        0.088
  YS02001770           JUNCTION        6.07          0.896        0.024
  YS02001774           JUNCTION        6.08          0.984        0.066
  YS02001779           JUNCTION        6.04          0.680        0.000
  YS02001882           JUNCTION        1.76          0.640        0.190
  YS02001884           JUNCTION        1.79          0.673        0.197
  YS02001759           JUNCTION        6.09          1.083        0.127
  YS02001887           JUNCTION        1.87          0.760        0.190
  YS02001890           JUNCTION        1.90          0.760        0.000
  YS02001898           JUNCTION        1.71          0.536        0.204
  YS02001901           JUNCTION        1.84          0.678        0.192
  YS02001904           JUNCTION        1.81          0.640        0.210
  YS02001907           JUNCTION        2.24          0.950        0.000
  YS02001910           JUNCTION        1.94          0.794        0.306
  YS02001915           JUNCTION        1.75          0.615        0.385
  YS02001918           JUNCTION        1.51          0.312        0.498
  YS02001619           JUNCTION        6.02          0.610        0.000
  YS02001629           JUNCTION        6.02          0.470        0.000
  YS02001641           JUNCTION        6.08          0.934        0.166
  YS02001644           JUNCTION        6.08          0.920        0.000
  YS02001652           JUNCTION        6.05          1.130        0.000
  YS02001655           JUNCTION        6.02          1.200        0.000
  YS02001920           JUNCTION        1.54          0.397        0.743
  YS02001926           JUNCTION        0.01          0.020        0.880
  YS02001658           JUNCTION        6.00          1.300        0.000
  YS02001661           JUNCTION        0.28          1.390        0.000
  YS02001622           JUNCTION        6.02          0.620        0.000
  YS02001633           JUNCTION        6.08          0.926        0.134
  YS02001649           JUNCTION        6.08          1.050        0.000
  YS02001757           JUNCTION        6.12          1.180        0.030
  YS02001895           JUNCTION        1.73          0.568        0.182
  YS02001625           JUNCTION        6.05          0.780        0.000
  YS02163301           JUNCTION        6.07          0.910        0.120
  YS02163601           JUNCTION        6.09          0.989        0.091
  YS02164001           JUNCTION        6.08          0.917        0.183
  YS02001647           JUNCTION        6.05          0.802        0.098
  YS02006553           JUNCTION        2.28          1.152        0.038
  YS02006561           JUNCTION        1.59          0.944        0.206
  YS02006556           JUNCTION        2.11          1.313        0.037
  YS02006558           JUNCTION        2.09          1.376        0.024
  YS02001783           JUNCTION        2.13          1.475        0.125
  YS02001784           JUNCTION        2.13          1.490        0.000
  YS02001786           JUNCTION        2.05          1.430        0.000
  YS02001788           JUNCTION        1.99          1.480        0.000
  YS02001790           JUNCTION        2.63          1.157        0.000
  YS02001791           JUNCTION        2.76          1.043        0.877
  YS02001793           JUNCTION        3.01          0.898        1.702
  
  
  *********************
  Node Flooding Summary
  *********************
  
  Flooding refers to all water that overflows a node, whether it ponds or not.
  --------------------------------------------------------------------------
                                                             Total   Maximum
                                 Maximum   Time of Max       Flood    Ponded
                        Hours       Rate    Occurrence      Volume     Depth
  Node                 Flooded       LPS   days hr:min    10^6 ltr    Meters
  --------------------------------------------------------------------------
  WS02006242              0.01    108.99      0  01:44       0.000     0.000
  WS02006243              0.01     58.39      0  01:44       0.000     0.000
  WS02006247              0.01     52.23      0  01:45       0.000     0.000
  YS02001779              3.15    613.64      0  02:53       2.579     0.000
  YS02001890              0.55     89.82      0  02:15       0.100     0.000
  YS02001907              1.37    585.97      0  02:16       1.942     0.000
  YS02001619              0.01     59.97      0  01:48       0.000     0.000
  YS02001629              0.01    183.43      0  01:47       0.001     0.000
  YS02001644              4.65   1410.87      0  02:53       9.715     0.000
  YS02001652              0.01     14.68      0  02:19       0.000     0.000
  YS02001655              0.01     18.44      0  02:20       0.000     0.000
  YS02001661              0.01    140.10      0  02:19       0.000     0.000
  YS02001622              0.01     63.13      0  01:47       0.000     0.000
  YS02001649              0.10     41.18      0  02:19       0.005     0.000
  YS02001625              2.03    326.67      0  02:16       1.450     0.000
  YS02001784              0.01      8.07      0  02:00       0.000     0.000
  YS02001786              0.01      5.75      0  02:00       0.000     0.000
  YS02001788              0.01    145.91      0  02:00       0.000     0.000
  YS02001790              0.01    192.59      0  02:00       0.000     0.000
  JK-storage              2.30    965.59      0  02:50       4.095     0.000
  XR-storage              4.51    632.43      0  02:50       4.777     0.000
  
  
  **********************
  Storage Volume Summary
  **********************
  
  --------------------------------------------------------------------------------------------------
                         Average     Avg  Evap Exfil       Maximum     Max    Time of Max    Maximum
                          Volume    Pcnt  Pcnt  Pcnt        Volume    Pcnt     Occurrence    Outflow
  Storage Unit           1000 m3    Full  Loss  Loss       1000 m3    Full    days hr:min        LPS
  --------------------------------------------------------------------------------------------------
  JK-storage               0.158      54     0     0         0.291     100       0  02:00     600.00
  CC-storage               3.212      20     0     0         3.929      25       0  02:51     400.00
  XR-storage               0.850      92     0     0         0.926     100       0  02:06     380.00
  
  
  ***********************
  Outfall Loading Summary
  ***********************
  
  -----------------------------------------------------------
                         Flow       Avg       Max       Total
                         Freq      Flow      Flow      Volume
  Outfall Node           Pcnt       LPS       LPS    10^6 ltr
  -----------------------------------------------------------
  WSC                   99.99    689.23   1139.60      17.569
  3                     92.72    287.31    600.30       5.937
  4                     66.67     71.58    336.04       1.105
  5                      0.00      0.00      0.00       0.000
  -----------------------------------------------------------
  System                64.85   1048.13   1757.34      24.611
  
  
  ********************
  Link Flow Summary
  ********************
  
  -----------------------------------------------------------------------------
                                 Maximum  Time of Max   Maximum    Max/    Max/
                                  |Flow|   Occurrence   |Veloc|    Full    Full
  Link                 Type          LPS  days hr:min     m/sec    Flow   Depth
  -----------------------------------------------------------------------------
  WS02003066WSF200     CONDUIT    824.56     0  01:56      3.11    0.14    0.29
  WS02006287WS02006284 CONDUIT    655.86     0  01:55      2.36    0.30    0.38
  WS02006284WS02006280 CONDUIT    656.04     0  01:55      2.59    0.27    0.36
  WS02006280WS02006229 CONDUIT    656.04     0  01:55      4.20    0.14    0.26
  WS02006229WS02006228 CONDUIT    798.96     0  01:52      1.59    2.65    1.00
  WS02006256WS02006235 CONDUIT    166.25     0  00:01      2.58    1.76    1.00
  WS02006253WS02006251 CONDUIT    154.73     0  01:55      0.59    0.46    1.00
  WS02006252WS02006251 CONDUIT    400.66     0  06:31      3.19    1.47    1.00
  WS02006251WS02006249 CONDUIT    522.68     0  01:50      1.36    1.51    1.00
  WS02006249WS02006248 CONDUIT    344.86     0  01:45      1.15    1.89    0.99
  WS02006248WS02006247 CONDUIT    337.34     0  01:45      1.12    0.73    1.00
  WS02006247WS02006245 CONDUIT    334.74     0  06:31      1.08    2.65    1.00
  WS02006245WS02006243 CONDUIT    335.48     0  06:31      1.11    0.99    1.00
  WS02006243WS02006242 CONDUIT    335.93     0  06:31      0.92    0.72    1.00
  WS02006242WS02006240 CONDUIT    337.80     0  07:00      0.90    1.34    1.00
  WS02006240WS02006239 CONDUIT    341.76     0  07:00      0.94    1.08    1.00
  WS02006239WS02006238 CONDUIT    343.50     0  07:00      0.91    1.10    1.00
  WS02006238WS02006235 CONDUIT    343.39     0  07:00      1.25    0.77    1.00
  WS02006235WS02006234 CONDUIT    394.72     0  05:12      1.03    4.16    1.00
  WS02006234WS02006232 CONDUIT    392.92     0  05:12      1.13    0.79    1.00
  WS02006232WS02006231 CONDUIT    392.84     0  05:12      1.07    0.82    1.00
  WS02006231WS02006230 CONDUIT    392.72     0  05:21      1.32    5.96    1.00
  WS02006230WS02006229 CONDUIT    403.03     0  05:21      1.05    8.97    1.00
  WS02006228WS02006109 CONDUIT    798.96     0  01:52      1.59    3.49    1.00
  WS02006116WS02004401 CONDUIT    826.10     0  01:54      1.05    1.14    1.00
  WS02006115WS02006116 CONDUIT    826.10     0  01:54      1.05    1.06    1.00
  WS02006113WS02006111 CONDUIT    799.83     0  01:53      2.68    0.96    0.80
  WS02006112WS02006115 CONDUIT    826.07     0  01:54      1.05    0.49    1.00
  WS02006111WS02006112 CONDUIT    800.42     0  01:54      1.81    0.38    0.89
  WS02006110WS02006113 CONDUIT    800.19     0  01:52      1.71    0.73    0.90
  WS02006109WS02006110 CONDUIT    800.19     0  01:52      1.59    1.54    1.00
  WS02004411WS02004412 CONDUIT    824.50     0  01:55      1.16    1.17    0.85
  WS02004401WS02004402 CONDUIT    826.02     0  01:54      1.05    0.99    1.00
  WS02004413WS02003067 CONDUIT    824.52     0  01:56      1.41    0.35    0.70
  WS02004412WS02004413 CONDUIT    824.50     0  01:56      1.10    0.55    0.91
  WS02004410WS02004411 CONDUIT    824.61     0  01:55      1.15    1.13    0.86
  WS02004409WS02004410 CONDUIT    825.01     0  01:55      1.14    1.07    0.87
  WS02004407WS02004409 CONDUIT    826.12     0  01:54      1.69    0.29    0.62
  WS02004406WS02004407 CONDUIT    826.39     0  01:53      1.44    0.37    0.69
  WS02004405WS02004406 CONDUIT    826.27     0  01:54      1.05    1.63    1.00
  WS02004404WS02004405 CONDUIT    826.23     0  01:53      1.05    8.09    1.00
  WS02004403WS02004404 CONDUIT    826.08     0  01:53      1.05    0.60    1.00
  WS02004402WS02004403 CONDUIT    826.08     0  01:53      1.05    1.19    1.00
  WS02004139WS02001211 CONDUIT    381.09     0  02:37      0.81    0.48    0.61
  WS02004138WS02004139 CONDUIT    380.04     0  01:10      3.33    0.08    0.45
  WS02003067WS02003066 CONDUIT    824.62     0  01:56      1.54    0.26    0.48
  WS02001213WS02003059 CONDUIT    391.01     0  02:35      0.80    0.65    0.82
  WS02001212WS02001213 CONDUIT    389.99     0  02:36      1.32    0.60    0.50
  WS02001211WS02001212 CONDUIT    389.32     0  02:36      0.78    0.30    0.67
  WS02003072WS02003073 CONDUIT   1137.06     0  02:14      1.85    2.46    0.53
  WS02003069WS02003072 CONDUIT   1136.45     0  02:14      1.72    0.55    0.57
  WS02003060WS02003069 CONDUIT   1136.37     0  02:13      1.95    0.44    0.51
  WS02003059WS02003060 CONDUIT    392.12     0  02:35      0.95    0.26    0.72
  HS02004901HS02004770 CONDUIT     31.96     0  01:52      0.09    0.12    0.51
  HS02004876HS02004881 CONDUIT    126.38     0  01:55      1.20    1.34    0.15
  HS02004870HS02004876 CONDUIT    102.10     0  01:55      0.82    0.07    0.18
  HS02004842HS02004848 CONDUIT     15.55     0  02:06      0.07    0.01    0.33
  HS02004837HS02004842 CONDUIT     15.96     0  02:07      0.41    0.01    0.35
  HS02004830HS02004837 CONDUIT     62.46     0  01:55      0.66    0.06    0.14
  HS02004824HS02004830 CONDUIT     62.57     0  01:56      0.62    0.08    0.16
  HS02004817HS02004824 CONDUIT    123.43     0  01:59      0.31    0.06    0.58
  HS02004770HS02004777 CONDUIT    165.77     0  01:51      0.46    0.30    0.52
  HS02004799HS02004480 CONDUIT    414.30     0  01:53      1.02    0.52    0.58
  HS02004792HS02004799 CONDUIT    377.20     0  01:52      1.15    0.23    0.47
  HS02004788HS02004792 CONDUIT    218.44     0  01:53      1.24    0.14    0.25
  HS02004785HS02004788 CONDUIT    165.54     0  01:53      0.86    1.25    0.27
  HS02004777HS02004785 CONDUIT    165.44     0  01:52      0.54    0.20    0.44
  HS02004480HS02004478 CONDUIT    492.13     0  01:53      1.52    2.07    0.46
  HS02004479HS02004480 CONDUIT     78.31     0  01:54      0.27    0.08    0.55
  HS02004862HS02004870 CONDUIT     77.52     0  01:55      0.79    0.08    0.14
  HS02004848HS02004852 CONDUIT     36.10     0  01:55      0.52    0.04    0.10
  HS02004856HS02004862 CONDUIT     54.46     0  01:55      0.59    0.05    0.13
  HS02004852HS02004856 CONDUIT     36.15     0  01:56      0.33    0.04    0.16
  HS02004802HS02004478 CONDUIT    170.22     0  01:58      0.53    0.15    0.47
  HS02004478WS02006287 CONDUIT    655.81     0  01:54      2.08    0.18    0.35
  HS02004817HS02004807 CONDUIT    125.36     0  01:59      0.24    0.07    0.75
  HS02004807HS02004802 CONDUIT    169.24     0  01:58      0.47    0.32    0.53
  YS02001759YS02001757 CONDUIT    873.89     0  02:05      1.11    0.62    1.00
  YS02001762YS02001759 CONDUIT    437.68     0  02:04      0.56    0.50    1.00
  YS02001765YS02001762 CONDUIT    437.69     0  02:04      0.56    0.41    1.00
  YS02001770YS02001767 CONDUIT    437.19     0  02:04      0.56    1.73    1.00
  YS02001774YS02001770 CONDUIT    613.61     0  02:53      0.78    0.39    1.00
  YS02001779YS02001774 CONDUIT    613.64     0  02:53      0.78    0.31    1.00
  YS02001649YS02001757 CONDUIT    968.24     0  02:01      1.23    0.59    1.00
  YS02001767YS02001765 CONDUIT    437.45     0  02:04      0.56    0.55    1.00
  YS02006561YS02001783 CONDUIT   1143.03     0  02:00      2.27    0.59    1.00
  YS02001783YS02001784 CONDUIT   1143.16     0  02:00      2.27    1.58    1.00
  YS02001784YS02001785 CONDUIT   1144.20     0  02:00      2.28    2.66    1.00
  YS02001788YS02001790 CONDUIT   1154.69     0  01:59      2.70    0.85    1.00
  YS02001790YS02001791 CONDUIT   1247.40     0  01:59      3.39    1.36    1.00
  YS02001791YS02001793 CONDUIT   1166.82     0  01:58      6.49    0.50    1.00
  YS02001910YS02001907 CONDUIT    564.73     0  02:00      0.72    0.32    1.00
  YS02001786YS02001788 CONDUIT   1144.82     0  02:00      2.45    2.21    1.00
  YS02001915YS02001910 CONDUIT    564.78     0  02:00      0.72    0.28    1.00
  YS02001918YS02001915 CONDUIT    281.00     0  02:00      0.46    0.15    1.00
  YS02001923YS02001920 CONDUIT    277.87     0  02:00      0.78    0.12    1.00
  YS02001926YS02001923 CONDUIT    290.02     0  02:00      0.87    0.41    0.96
  YS02001929YS02001926 CONDUIT    206.77     0  02:00      0.93    0.10    0.87
  YS02001920YS02001918 CONDUIT    280.81     0  02:00      0.76    0.27    1.00
  YS02001629YS02163301 CONDUIT    224.41     0  01:48      0.29    0.28    1.00
  YS02001619YS02001622 CONDUIT    336.65     0  02:16      0.76    0.50    1.00
  YS02001622YS02001625 CONDUIT    336.58     0  02:16      0.43    0.18    1.00
  YS02001625YS02001629 CONDUIT    206.36     0  01:47      0.31    0.10    1.00
  YS02163301YS02001633 CONDUIT    224.38     0  01:48      0.29    0.21    1.00
  YS02163601YS02164001 CONDUIT    411.11     0  01:48      0.52    0.36    1.00
  YS02164001YS02001641 CONDUIT    410.39     0  01:48      0.52    0.56    1.00
  YS02001641YS02001644 CONDUIT    409.87     0  01:48      0.52    1.32    1.00
  YS02001647YS02001649 CONDUIT    687.69     0  02:52      0.88    0.36    1.00
  YS02006553YS02006556 CONDUIT    700.03     0  01:58      0.89    0.60    1.00
  YS02006556YS02006558 CONDUIT    699.93     0  01:59      0.89    0.55    1.00
  YSB6556YSB1171       CONDUIT     43.98     0  01:54      0.13    0.05    0.82
  YS02001907YS02006553 CONDUIT    700.10     0  01:58      0.78    0.82    1.00
  YS02006558YS02006561 CONDUIT   1143.18     0  02:00      4.04    2.53    1.00
  YS02001633YS02163601 CONDUIT    411.18     0  01:48      0.52    0.43    1.00
  YS02001644YS02001647 CONDUIT    687.73     0  02:52      0.88    0.40    1.00
  YS02001745YS02001748 CONDUIT    396.05     0  02:16      1.73    0.15    0.96
  YS02001748YS02001751 CONDUIT    395.97     0  02:16      1.26    0.20    1.00
  YS02001751YS02001754 CONDUIT    395.91     0  02:16      1.03    0.19    1.00
  YS02001754YS02001757 CONDUIT    396.09     0  02:15      0.50    0.16    1.00
  YS02001882YS02001884 CONDUIT     17.98     0  01:53      0.12    0.02    1.00
  YS02001884YS02001887 CONDUIT     42.50     0  01:53      0.09    0.06    1.00
  YS02001890YS02001895 CONDUIT    525.21     0  01:58      0.67    0.24    1.00
  YS02001895YS02001898 CONDUIT    525.32     0  01:58      0.67    0.91    1.00
  YS02001898YS02001901 CONDUIT    525.78     0  01:58      0.67    0.34    1.00
  YS02001901YS02001904 CONDUIT    526.37     0  01:58      0.67    0.82    1.00
  YS02001904YS02001907 CONDUIT    527.40     0  01:58      0.67    0.18    1.00
  YS02001887YS02001890 CONDUIT    606.13     0  02:15      0.77    1.04    1.00
  YS02001652YS02001649 CONDUIT    478.06     0  02:16      0.61    0.24    1.00
  YS02001655YS02001652 CONDUIT    477.52     0  02:16      1.09    0.23    1.00
  YS02001658YS02001655 CONDUIT    477.13     0  02:16      1.45    0.20    1.00
  YS02001661YS02001658 CONDUIT    509.45     0  02:16      1.85    0.20    1.00
  YS02001664YS02001661 CONDUIT    773.26     0  02:04      1.75    0.24    0.76
  YSB1154YSB6556       CONDUIT     43.64     0  01:53      0.17    0.08    0.72
  YSB1174YSB1171       CONDUIT     35.15     0  01:50      0.10    0.05    0.83
  YSB1171HS02004479    CONDUIT     78.00     0  01:53      0.54    0.05    0.67
  HS02004881HS02006253 CONDUIT    139.58     0  01:55      2.10    0.03    0.39
  YS02001793JiankangQianchi CONDUIT   1124.38     0  01:58     14.95    0.09    1.00
  YS02001757CaochengTiaoxuchi CONDUIT   2141.21     0  02:04      3.79    0.94    1.00
  WSF200WS02003060     CONDUIT    823.48     0  01:56      2.24    0.18    0.40
  1                    CONDUIT   1139.60     0  02:15      3.45    0.40    0.44
  2                    CONDUIT    336.04     0  01:50      6.57    0.80    0.68
  3                    CONDUIT    600.30     0  01:50     10.03    0.96    0.79
  4                    CONDUIT      0.00     0  00:00      0.00    0.00    0.00
  CC-Pump-1            PUMP       200.00     0  03:00              1.00
  CC-Pump-2            PUMP       200.00     0  01:40              1.00
  JK-Pump-1            PUMP       300.00     0  00:00              1.00
  JK-Pump-2            PUMP       300.00     0  01:50              1.00
  XR-Pump-1            PUMP        95.00     0  00:00              1.00
  XR-Pump-2            PUMP        95.00     0  00:00              1.00
  XR-Pump-3            PUMP        95.00     0  00:20              1.00
  XR-Pump-4            PUMP        95.00     0  00:00              1.00
  
  
  ***************************
  Flow Classification Summary
  ***************************
  
  -------------------------------------------------------------------------------------
                      Adjusted    ---------- Fraction of Time in Flow Class ---------- 
                       /Actual         Up    Down  Sub   Sup   Up    Down  Norm  Inlet 
  Conduit               Length    Dry  Dry   Dry   Crit  Crit  Crit  Crit  Ltd   Ctrl  
  -------------------------------------------------------------------------------------
  WS02003066WSF200        1.00   0.03  0.02  0.00  0.00  0.95  0.00  0.00  0.56  0.00
  WS02006287WS02006284    1.00   0.03  0.01  0.00  0.57  0.38  0.00  0.00  0.65  0.00
  WS02006284WS02006280    1.00   0.04  0.00  0.00  0.00  0.00  0.00  0.96  0.00  0.00
  WS02006280WS02006229    1.00   0.04  0.00  0.00  0.00  0.02  0.00  0.94  0.00  0.00
  WS02006229WS02006228    1.00   0.00  0.00  0.00  0.99  0.00  0.00  0.01  0.00  0.00
  WS02006256WS02006235    1.00   0.00  0.00  0.00  1.00  0.00  0.00  0.00  0.00  0.00
  WS02006253WS02006251    1.00   0.02  0.01  0.00  0.96  0.00  0.00  0.00  0.00  0.00
  WS02006252WS02006251    1.00   0.05  0.00  0.00  0.00  0.00  0.94  0.00  0.00  0.00
  WS02006251WS02006249    1.00   0.00  0.00  0.00  1.00  0.00  0.00  0.00  0.18  0.00
  WS02006249WS02006248    1.00   0.00  0.02  0.00  0.95  0.00  0.03  0.00  0.00  0.00
  WS02006248WS02006247    1.00   0.02  0.00  0.00  0.98  0.00  0.00  0.00  0.06  0.00
  WS02006247WS02006245    1.00   0.02  0.00  0.00  0.98  0.00  0.00  0.00  0.00  0.00
  WS02006245WS02006243    1.00   0.01  0.00  0.00  0.96  0.00  0.00  0.03  0.01  0.00
  WS02006243WS02006242    1.00   0.01  0.00  0.00  0.99  0.00  0.00  0.00  0.16  0.00
  WS02006242WS02006240    1.00   0.00  0.00  0.00  1.00  0.00  0.00  0.00  0.00  0.00
  WS02006240WS02006239    1.00   0.00  0.00  0.00  0.97  0.00  0.00  0.02  0.01  0.00
  WS02006239WS02006238    1.00   0.00  0.00  0.00  1.00  0.00  0.00  0.00  0.00  0.00
  WS02006238WS02006235    1.00   0.00  0.00  0.00  1.00  0.00  0.00  0.00  0.00  0.00
  WS02006235WS02006234    1.00   0.00  0.00  0.00  0.97  0.00  0.03  0.00  0.00  0.00
  WS02006234WS02006232    1.00   0.00  0.00  0.00  1.00  0.00  0.00  0.00  0.01  0.00
  WS02006232WS02006231    1.00   0.00  0.00  0.00  0.99  0.00  0.00  0.00  0.00  0.00
  WS02006231WS02006230    1.00   0.00  0.00  0.00  0.85  0.00  0.15  0.00  0.00  0.00
  WS02006230WS02006229    1.00   0.00  0.00  0.00  0.99  0.00  0.00  0.01  0.00  0.00
  WS02006228WS02006109    1.00   0.00  0.00  0.00  1.00  0.00  0.00  0.00  0.00  0.00
  WS02006116WS02004401    1.00   0.02  0.00  0.00  0.98  0.00  0.00  0.00  0.00  0.00
  WS02006115WS02006116    1.00   0.02  0.00  0.00  0.97  0.00  0.00  0.00  0.00  0.00
  WS02006113WS02006111    1.00   0.02  0.00  0.00  0.07  0.92  0.00  0.00  0.08  0.00
  WS02006112WS02006115    1.00   0.02  0.00  0.00  0.98  0.00  0.00  0.00  0.00  0.00
  WS02006111WS02006112    1.00   0.02  0.00  0.00  0.98  0.00  0.00  0.00  0.88  0.00
  WS02006110WS02006113    1.00   0.01  0.01  0.00  0.98  0.00  0.00  0.00  0.00  0.00
  WS02006109WS02006110    1.00   0.00  0.01  0.00  0.98  0.00  0.01  0.00  0.00  0.00
  WS02004411WS02004412    1.00   0.03  0.00  0.00  0.97  0.00  0.00  0.00  0.00  0.00
  WS02004401WS02004402    1.00   0.02  0.00  0.00  0.98  0.00  0.00  0.00  0.00  0.00
  WS02004413WS02003067    1.00   0.03  0.01  0.00  0.00  0.00  0.95  0.00  0.00  0.00
  WS02004412WS02004413    1.00   0.03  0.00  0.00  0.97  0.00  0.00  0.00  0.03  0.00
  WS02004410WS02004411    1.00   0.03  0.00  0.00  0.97  0.00  0.00  0.00  0.03  0.00
  WS02004409WS02004410    1.00   0.03  0.00  0.00  0.97  0.00  0.00  0.00  0.03  0.00
  WS02004407WS02004409    1.00   0.03  0.00  0.00  0.97  0.00  0.00  0.00  0.89  0.00
  WS02004406WS02004407    1.00   0.00  0.03  0.00  0.97  0.00  0.00  0.00  0.00  0.00
  WS02004405WS02004406    1.00   0.00  0.00  0.00  1.00  0.00  0.00  0.00  0.01  0.00
  WS02004404WS02004405    1.00   0.00  0.00  0.00  1.00  0.00  0.00  0.00  0.00  0.00
  WS02004403WS02004404    1.00   0.00  0.02  0.00  0.98  0.00  0.00  0.00  0.01  0.00
  WS02004402WS02004403    1.00   0.02  0.00  0.00  0.98  0.00  0.00  0.00  0.00  0.00
  WS02004139WS02001211    1.00   0.00  0.00  0.00  1.00  0.00  0.00  0.00  0.00  0.00
  WS02004138WS02004139    1.00   0.00  0.00  0.00  0.99  0.01  0.00  0.00  1.00  0.00
  WS02003067WS02003066    1.00   0.05  0.01  0.00  0.95  0.00  0.00  0.00  0.00  0.00
  WS02001213WS02003059    1.00   0.00  0.00  0.00  1.00  0.00  0.00  0.00  0.00  0.00
  WS02001212WS02001213    1.00   0.00  0.00  0.00  0.92  0.00  0.07  0.00  0.00  0.00
  WS02001211WS02001212    1.00   0.00  0.00  0.00  1.00  0.00  0.00  0.00  0.00  0.00
  WS02003072WS02003073    1.00   0.00  0.00  0.00  0.00  0.00  0.00  1.00  0.00  0.00
  WS02003069WS02003072    1.00   0.00  0.00  0.00  1.00  0.00  0.00  0.00  0.16  0.00
  WS02003060WS02003069    1.00   0.00  0.00  0.00  0.99  0.01  0.00  0.00  0.08  0.00
  WS02003059WS02003060    1.00   0.00  0.00  0.00  1.00  0.00  0.00  0.00  0.01  0.00
  HS02004901HS02004770    1.00   0.04  0.00  0.00  0.96  0.00  0.00  0.00  0.00  0.00
  HS02004876HS02004881    1.00   0.02  0.00  0.00  0.84  0.14  0.00  0.00  0.00  0.00
  HS02004870HS02004876    1.00   0.00  0.00  0.00  0.99  0.00  0.00  0.00  0.95  0.00
  HS02004842HS02004848    1.00   0.00  0.04  0.00  0.96  0.00  0.00  0.00  0.57  0.00
  HS02004837HS02004842    1.00   0.00  0.00  0.00  0.99  0.01  0.00  0.00  0.11  0.00
  HS02004830HS02004837    1.00   0.00  0.00  0.00  1.00  0.00  0.00  0.00  0.99  0.00
  HS02004824HS02004830    1.00   0.00  0.00  0.00  1.00  0.00  0.00  0.00  0.03  0.00
  HS02004817HS02004824    1.00   0.00  0.00  0.00  1.00  0.00  0.00  0.00  0.94  0.00
  HS02004770HS02004777    1.00   0.00  0.04  0.00  0.96  0.00  0.00  0.00  0.03  0.00
  HS02004799HS02004480    1.00   0.00  0.02  0.00  0.96  0.00  0.02  0.00  0.00  0.00
  HS02004792HS02004799    1.00   0.00  0.00  0.00  0.99  0.01  0.00  0.00  0.98  0.00
  HS02004788HS02004792    1.00   0.00  0.00  0.00  0.99  0.01  0.00  0.00  0.98  0.00
  HS02004785HS02004788    1.00   0.00  0.00  0.00  1.00  0.00  0.00  0.00  0.00  0.00
  HS02004777HS02004785    1.00   0.00  0.00  0.00  1.00  0.00  0.00  0.00  0.13  0.00
  HS02004480HS02004478    1.00   0.04  0.00  0.00  0.63  0.00  0.00  0.33  0.00  0.00
  HS02004479HS02004480    1.00   0.02  0.00  0.00  0.98  0.00  0.00  0.00  0.12  0.00
  HS02004862HS02004870    1.00   0.00  0.00  0.00  1.00  0.00  0.00  0.00  0.04  0.00
  HS02004848HS02004852    1.00   0.04  0.00  0.00  0.96  0.00  0.00  0.00  0.78  0.00
  HS02004856HS02004862    1.00   0.00  0.04  0.00  0.96  0.00  0.00  0.00  0.82  0.00
  HS02004852HS02004856    1.00   0.04  0.00  0.00  0.96  0.00  0.00  0.00  0.77  0.00
  HS02004802HS02004478    1.00   0.04  0.00  0.00  0.96  0.00  0.00  0.00  0.03  0.00
  HS02004478WS02006287    1.00   0.04  0.00  0.00  0.70  0.26  0.00  0.00  0.62  0.00
  HS02004817HS02004807    1.00   0.00  0.04  0.00  0.96  0.00  0.00  0.00  0.01  0.00
  HS02004807HS02004802    1.00   0.04  0.00  0.00  0.96  0.00  0.00  0.00  0.00  0.00
  YS02001759YS02001757    1.00   0.00  0.00  0.00  1.00  0.00  0.00  0.00  0.16  0.00
  YS02001762YS02001759    1.00   0.00  0.00  0.00  1.00  0.00  0.00  0.00  0.03  0.00
  YS02001765YS02001762    1.00   0.00  0.00  0.00  1.00  0.00  0.00  0.00  0.14  0.00
  YS02001770YS02001767    1.00   0.00  0.00  0.00  1.00  0.00  0.00  0.00  0.00  0.00
  YS02001774YS02001770    1.00   0.00  0.04  0.00  0.96  0.00  0.00  0.00  0.03  0.00
  YS02001779YS02001774    1.00   0.00  0.00  0.00  1.00  0.00  0.00  0.00  0.18  0.00
  YS02001649YS02001757    1.00   0.00  0.00  0.00  1.00  0.00  0.00  0.00  0.16  0.00
  YS02001767YS02001765    1.00   0.00  0.00  0.00  1.00  0.00  0.00  0.00  0.00  0.00
  YS02006561YS02001783    1.00   0.05  0.00  0.00  0.45  0.51  0.00  0.00  0.43  0.00
  YS02001783YS02001784    1.00   0.00  0.05  0.00  0.95  0.00  0.00  0.00  0.00  0.00
  YS02001784YS02001785    1.00   0.00  0.00  0.00  1.00  0.00  0.00  0.00  0.17  0.00
  YS02001788YS02001790    1.00   0.00  0.00  0.00  0.51  0.49  0.00  0.00  0.44  0.00
  YS02001790YS02001791    1.00   0.00  0.00  0.00  0.49  0.51  0.00  0.00  0.39  0.00
  YS02001791YS02001793    1.00   0.00  0.00  0.00  0.52  0.48  0.00  0.00  0.03  0.00
  YS02001910YS02001907    1.00   0.00  0.00  0.00  0.98  0.00  0.00  0.02  0.12  0.00
  YS02001786YS02001788    1.00   0.00  0.00  0.00  0.50  0.50  0.00  0.00  0.00  0.00
  YS02001915YS02001910    1.00   0.00  0.00  0.00  0.99  0.01  0.00  0.00  0.16  0.00
  YS02001918YS02001915    1.00   0.00  0.01  0.00  0.98  0.01  0.00  0.00  0.52  0.00
  YS02001923YS02001920    1.00   0.00  0.00  0.00  1.00  0.00  0.00  0.00  0.74  0.00
  YS02001926YS02001923    1.00   0.00  0.03  0.00  0.28  0.00  0.69  0.00  0.00  0.00
  YS02001929YS02001926    1.00   0.00  0.04  0.00  0.96  0.00  0.00  0.00  0.66  0.00
  YS02001920YS02001918    1.00   0.00  0.01  0.00  0.99  0.00  0.00  0.00  0.00  0.00
  YS02001629YS02163301    1.00   0.04  0.00  0.00  0.96  0.00  0.00  0.00  0.00  0.00
  YS02001619YS02001622    1.00   0.04  0.00  0.00  0.96  0.00  0.00  0.00  0.00  0.00
  YS02001622YS02001625    1.00   0.04  0.00  0.00  0.96  0.00  0.00  0.00  0.05  0.00
  YS02001625YS02001629    1.00   0.04  0.01  0.00  0.94  0.00  0.01  0.00  0.00  0.00
  YS02163301YS02001633    1.00   0.00  0.04  0.00  0.96  0.00  0.00  0.00  0.00  0.00
  YS02163601YS02164001    1.00   0.00  0.03  0.00  0.97  0.00  0.00  0.00  0.00  0.00
  YS02164001YS02001641    1.00   0.01  0.02  0.00  0.97  0.00  0.00  0.00  0.06  0.00
  YS02001641YS02001644    1.00   0.00  0.01  0.00  0.99  0.00  0.00  0.00  0.00  0.00
  YS02001647YS02001649    1.00   0.00  0.04  0.00  0.96  0.00  0.00  0.00  0.01  0.00
  YS02006553YS02006556    1.00   0.01  0.00  0.00  0.99  0.00  0.00  0.00  0.03  0.00
  YS02006556YS02006558    1.00   0.00  0.00  0.00  1.00  0.00  0.00  0.00  0.00  0.00
  YSB6556YSB1171          1.00   0.02  0.01  0.00  0.96  0.00  0.00  0.00  0.00  0.00
  YS02001907YS02006553    1.00   0.00  0.02  0.00  0.98  0.00  0.00  0.00  0.00  0.00
  YS02006558YS02006561    1.00   0.05  0.00  0.00  0.31  0.65  0.00  0.00  0.42  0.00
  YS02001633YS02163601    1.00   0.00  0.01  0.00  0.99  0.00  0.00  0.00  0.15  0.00
  YS02001644YS02001647    1.00   0.00  0.04  0.00  0.96  0.00  0.00  0.00  0.00  0.00
  YS02001745YS02001748    1.00   0.00  0.00  0.00  0.93  0.00  0.00  0.07  0.01  0.00
  YS02001748YS02001751    1.00   0.00  0.00  0.00  0.98  0.02  0.00  0.00  0.14  0.00
  YS02001751YS02001754    1.00   0.00  0.00  0.00  0.95  0.00  0.00  0.05  0.01  0.00
  YS02001754YS02001757    1.00   0.00  0.00  0.00  0.99  0.01  0.00  0.00  0.18  0.00
  YS02001882YS02001884    1.00   0.04  0.00  0.00  0.96  0.00  0.00  0.00  0.00  0.00
  YS02001884YS02001887    1.00   0.03  0.01  0.00  0.97  0.00  0.00  0.00  0.00  0.00
  YS02001890YS02001895    1.00   0.00  0.04  0.00  0.96  0.00  0.00  0.00  0.00  0.00
  YS02001895YS02001898    1.00   0.04  0.00  0.00  0.95  0.00  0.00  0.00  0.00  0.00
  YS02001898YS02001901    1.00   0.04  0.00  0.00  0.96  0.00  0.00  0.00  0.01  0.00
  YS02001901YS02001904    1.00   0.04  0.00  0.00  0.96  0.00  0.00  0.00  0.00  0.00
  YS02001904YS02001907    1.00   0.00  0.04  0.00  0.96  0.00  0.00  0.00  0.00  0.00
  YS02001887YS02001890    1.00   0.00  0.00  0.00  0.98  0.00  0.02  0.00  0.00  0.00
  YS02001652YS02001649    1.00   0.00  0.00  0.00  1.00  0.00  0.00  0.00  0.16  0.00
  YS02001655YS02001652    1.00   0.00  0.00  0.00  0.95  0.00  0.00  0.05  0.01  0.00
  YS02001658YS02001655    1.00   0.00  0.04  0.00  0.94  0.02  0.00  0.00  0.02  0.00
  YS02001661YS02001658    1.00   0.04  0.00  0.00  0.92  0.04  0.00  0.00  0.00  0.00
  YS02001664YS02001661    1.00   0.04  0.00  0.00  0.93  0.04  0.00  0.00  0.10  0.00
  YSB1154YSB6556          1.00   0.04  0.00  0.00  0.96  0.00  0.00  0.00  0.02  0.00
  YSB1174YSB1171          1.00   0.03  0.01  0.00  0.97  0.00  0.00  0.00  0.00  0.00
  YSB1171HS02004479       1.00   0.02  0.00  0.00  0.97  0.00  0.00  0.00  0.11  0.00
  HS02004881HS02006253    1.00   0.03  0.00  0.00  0.92  0.01  0.00  0.05  0.77  0.00
  YS02001793JiankangQianchi    1.00   0.00  0.00  0.00  0.64  0.35  0.00  0.00  0.14  0.00
  YS02001757CaochengTiaoxuchi    1.00   0.00  0.05  0.00  0.89  0.05  0.00  0.00  0.00  0.00
  WSF200WS02003060        1.00   0.00  0.03  0.00  0.61  0.36  0.00  0.00  0.07  0.00
  1                       1.00   0.00  0.00  0.00  0.00  1.00  0.00  0.00  0.39  0.00
  2                       1.00   0.33  0.00  0.00  0.00  0.67  0.00  0.00  0.12  0.00
  3                       1.00   0.07  0.00  0.00  0.00  0.93  0.00  0.00  0.21  0.00
  4                       1.00   1.00  0.00  0.00  0.00  0.00  0.00  0.00  0.00  0.00
  
  
  *************************
  Conduit Surcharge Summary
  *************************
  
  ----------------------------------------------------------------------------
                                                           Hours        Hours 
                         --------- Hours Full --------   Above Full   Capacity
  Conduit                Both Ends  Upstream  Dnstream   Normal Flow   Limited
  ----------------------------------------------------------------------------
  WS02006229WS02006228        3.85      4.21      3.85      5.90         3.85
  WS02006256WS02006235        6.35      6.35      7.65      2.32         0.01
  WS02006253WS02006251        0.10      0.10      0.13      0.01         0.01
  WS02006252WS02006251        1.94      1.94      3.33      2.97         0.01
  WS02006251WS02006249        0.02      0.11      0.02      2.14         0.02
  WS02006249WS02006248        0.01      0.01      0.02      5.55         0.01
  WS02006248WS02006247        0.03      0.03      0.18      0.01         0.01
  WS02006247WS02006245        0.19      0.22      0.19      6.01         0.18
  WS02006245WS02006243        0.20      0.20      0.57      0.01         0.01
  WS02006243WS02006242        0.69      0.69      3.14      0.01         0.01
  WS02006242WS02006240        1.18      1.18      3.80      3.15         0.01
  WS02006240WS02006239        1.73      1.73      1.98      0.09         0.01
  WS02006239WS02006238        3.63      3.63      3.81      0.15         0.10
  WS02006238WS02006235        3.62      3.62      4.18      0.01         0.02
  WS02006235WS02006234        1.37      1.37      3.30      6.37         0.04
  WS02006234WS02006232        2.09      2.09      4.31      0.01         0.01
  WS02006232WS02006231        1.09      1.09      4.31      0.01         0.01
  WS02006231WS02006230        0.79      0.79      1.20      6.36         0.01
  WS02006230WS02006229        5.16      5.70      5.16      6.46         5.16
  WS02006228WS02006109        4.05      4.71      4.05      6.17         4.05
  WS02006116WS02004401        0.57      0.57      0.58      0.51         0.50
  WS02006115WS02006116        0.37      0.37      0.39      0.21         0.20
  WS02006112WS02006115        0.31      0.31      1.59      0.01         0.01
  WS02006111WS02006112        0.01      0.01      5.97      0.01         0.01
  WS02006110WS02006113        0.01      0.01      4.43      0.01         0.01
  WS02006109WS02006110        1.46      1.46      4.71      1.47         0.01
  WS02004411WS02004412        0.01      0.01      0.01      0.55         0.01
  WS02004401WS02004402        0.58      0.58      0.62      0.01         0.02
  WS02004410WS02004411        0.01      0.01      0.01      0.49         0.01
  WS02004409WS02004410        0.01      0.01      0.01      0.24         0.01
  WS02004406WS02004407        0.01      0.01      0.73      0.01         0.01
  WS02004405WS02004406        0.73      0.77      0.73      1.52         0.73
  WS02004404WS02004405        0.77      0.84      0.77      6.25         0.77
  WS02004403WS02004404        0.63      0.63      0.84      0.01         0.01
  WS02004402WS02004403        0.62      0.62      0.63      0.57         0.56
  WS02003072WS02003073        0.01      0.01      0.01      5.94         0.01
  HS02004876HS02004881        0.01      0.01      0.01      0.49         0.01
  HS02004785HS02004788        0.01      0.01      0.01      0.35         0.01
  HS02004480HS02004478        0.01      0.01      0.01      0.79         0.01
  YS02001759YS02001757        6.09      6.09      6.12      0.01         0.01
  YS02001762YS02001759        6.08      6.08      6.09      0.01         0.01
  YS02001765YS02001762        6.08      6.08      6.08      0.01         0.01
  YS02001770YS02001767        6.07      6.07      6.07      0.45         0.86
  YS02001774YS02001770        6.07      6.07      6.08      0.01         0.01
  YS02001779YS02001774        6.04      6.04      6.08      0.01         0.01
  YS02001649YS02001757        6.08      6.08      6.12      0.01         0.01
  YS02001767YS02001765        6.07      6.07      6.08      0.01         0.01
  YS02006561YS02001783        1.59      1.59      2.13      0.01         0.01
  YS02001783YS02001784        2.12      2.13      2.13      2.02         1.91
  YS02001784YS02001785        2.05      2.13      2.05      2.74         2.05
  YS02001788YS02001790        1.99      1.99      2.63      0.01         0.01
  YS02001790YS02001791        2.63      2.63      2.76      1.53         1.42
  YS02001791YS02001793        2.76      2.76      3.09      0.01         0.01
  YS02001910YS02001907        1.94      1.94      2.24      0.01         0.01
  YS02001786YS02001788        1.99      2.05      1.99      2.45         1.99
  YS02001915YS02001910        1.75      1.75      1.94      0.01         0.01
  YS02001918YS02001915        1.51      1.51      1.75      0.01         0.01
  YS02001923YS02001920        1.34      1.34      1.54      0.01         0.01
  YS02001926YS02001923        0.01      0.01      0.01      0.01         0.01
  YS02001929YS02001926        0.01      0.01      0.01      0.01         0.01
  YS02001920YS02001918        1.51      1.51      1.54      0.01         0.01
  YS02001629YS02163301        6.06      6.06      6.07      0.01         0.01
  YS02001619YS02001622        6.02      6.02      6.02      0.01         0.01
  YS02001622YS02001625        6.02      6.02      6.05      0.01         0.01
  YS02001625YS02001629        6.02      6.02      6.05      0.01         0.01
  YS02163301YS02001633        6.07      6.07      6.08      0.01         0.01
  YS02163601YS02164001        6.08      6.08      6.09      0.01         0.01
  YS02164001YS02001641        6.08      6.08      6.08      0.01         0.02
  YS02001641YS02001644        6.08      6.08      6.08      2.21         2.23
  YS02001647YS02001649        6.05      6.05      6.08      0.01         0.01
  YS02006553YS02006556        2.11      2.11      2.28      0.01         0.01
  YS02006556YS02006558        2.17      2.17      2.35      0.01         0.01
  YSB6556YSB1171              0.01      0.01      0.14      0.01         0.01
  YS02001907YS02006553        2.76      2.76      2.95      0.01         0.01
  YS02006558YS02006561        1.78      2.08      1.78      2.63         1.78
  YS02001633YS02163601        6.08      6.08      6.09      0.01         0.01
  YS02001644YS02001647        6.05      6.05      6.08      0.01         0.01
  YS02001745YS02001748        0.01      0.01      5.99      0.01         0.01
  YS02001748YS02001751        6.00      6.00      6.02      0.01         0.01
  YS02001751YS02001754        6.02      6.02      6.04      0.01         0.01
  YS02001754YS02001757        6.05      6.05      6.12      0.01         0.01
  YS02001882YS02001884        1.76      1.76      1.79      0.01         0.01
  YS02001884YS02001887        1.84      1.84      1.87      0.01         0.01
  YS02001890YS02001895        1.73      1.73      1.96      0.01         0.01
  YS02001895YS02001898        1.71      1.71      1.73      0.01         0.01
  YS02001898YS02001901        1.74      1.74      1.84      0.01         0.01
  YS02001901YS02001904        1.81      1.81      1.84      0.01         0.01
  YS02001904YS02001907        1.81      1.81      2.32      0.01         0.01
  YS02001887YS02001890        1.90      1.90      1.92      0.20         0.01
  YS02001652YS02001649        6.06      6.06      6.08      0.01         0.01
  YS02001655YS02001652        6.02      6.02      6.05      0.01         0.01
  YS02001658YS02001655        6.00      6.00      6.02      0.01         0.01
  YS02001661YS02001658        0.26      0.26      6.00      0.01         0.01
  YS02001664YS02001661        0.01      0.01      1.69      0.01         0.01
  YS02001793JiankangQianchi        3.01      3.01      3.66      0.01         0.01
  YS02001757CaochengTiaoxuchi        5.58      5.58      6.12      0.01         0.01
  
  
  ***************
  Pumping Summary
  ***************
  
  ---------------------------------------------------------------------------------------------------------
                                                  Min       Avg       Max     Total     Power    % Time Off
                        Percent   Number of      Flow      Flow      Flow    Volume     Usage    Pump Curve
  Pump                 Utilized   Start-Ups       LPS       LPS       LPS  10^6 ltr     Kw-hr    Low   High
  ---------------------------------------------------------------------------------------------------------
  CC-Pump-1               66.51           4      0.00    147.18    200.00     2.762      3.54    0.0    6.3
  CC-Pump-2               77.14           6      0.00    153.91    200.00     3.369      4.42    0.0    5.5
  JK-Pump-1               93.61           5      0.00    188.40    300.00     4.119     43.10    0.0    0.0
  JK-Pump-2               87.22           8      0.00    186.12    300.00     3.707     39.10    0.0    0.0
  XR-Pump-1               78.72           7      0.00     66.51     95.00     1.510     14.11    0.0    0.0
  XR-Pump-2               87.23           5      0.00     80.98     95.00     1.910     14.16    0.0    0.0
  XR-Pump-3               85.08           8      0.00     71.75     95.00     1.795     15.80    0.0    0.0
  XR-Pump-4               87.22          10      0.00     71.30     95.00     1.796     14.26    0.0    0.0
  

  Analysis begun on:  Wed Dec 22 17:14:33 2021
  Analysis ended on:  Wed Dec 22 17:14:37 2021
  Total elapsed time: 00:00:04