
  EPA STORM WATER MANAGEMENT MODEL - VERSION 5.1 (Build 5.3.0.dev0)
  --------------------------------------------------------------

  WARNING 04: minimum elevation drop used for Conduit WS02004404WS02004405
  WARNING 03: negative offset ignored for Link YS02001904YS02001907
  
  *********************************************************
  NOTE: The summary statistics displayed in this report are
  based on results found at every computational time step,  
  not just on results from each reporting time step.
  *********************************************************
  
  ****************
  Analysis Options
  ****************
  Flow Units ............... LPS
  Process Models:
    Rainfall/Runoff ........ YES
    RDII ................... NO
    Snowmelt ............... NO
    Groundwater ............ NO
    Flow Routing ........... YES
    Ponding Allowed ........ NO
    Water Quality .......... NO
  Infiltration Method ...... HORTON
  Flow Routing Method ...... DYNWAVE
  Surcharge Method ......... EXTRAN
  Starting Date ............ 08/28/2015 08:00:00
  Ending Date .............. 08/28/2015 15:50:00
  Antecedent Dry Days ...... 8.0
  Report Time Step ......... 00:01:00
  Wet Time Step ............ 00:01:00
  Dry Time Step ............ 00:01:00
  Routing Time Step ........ 5.00 sec
  Variable Time Step ....... YES
  Maximum Trials ........... 8
  Number of Threads ........ 4
  Head Tolerance ........... 0.001500 m
  
  
  **************************        Volume         Depth
  Runoff Quantity Continuity     hectare-m            mm
  **************************     ---------       -------
  Total Precipitation ......         7.641        16.729
  Evaporation Loss .........         0.000         0.000
  Infiltration Loss ........         1.880         4.117
  Surface Runoff ...........         4.668        10.221
  Final Storage ............         1.093         2.393
  Continuity Error (%) .....        -0.013
  
  
  **************************        Volume        Volume
  Flow Routing Continuity        hectare-m      10^6 ltr
  **************************     ---------     ---------
  Dry Weather Inflow .......         0.616         6.165
  Wet Weather Inflow .......         4.667        46.671
  Groundwater Inflow .......         0.000         0.000
  RDII Inflow ..............         0.000         0.000
  External Inflow ..........         0.102         1.024
  External Outflow .........         2.385        23.852
  Flooding Loss ............         2.530        25.296
  Evaporation Loss .........         0.000         0.000
  Exfiltration Loss ........         0.000         0.000
  Initial Stored Volume ....         0.076         0.761
  Final Stored Volume ......         0.610         6.099
  Continuity Error (%) .....        -1.149
  
  
  *************************
  Highest Continuity Errors
  *************************
  Node HS02004842 (12.71%)
  Node YS02001884 (10.62%)
  Node JK-storage (-5.09%)
  Node HS02004817 (2.32%)
  Node YSB1171 (2.18%)
  
  
  ***************************
  Time-Step Critical Elements
  ***************************
  Link 3 (52.82%)
  Link WS02006252WS02006251 (35.84%)
  Link WS02006238WS02006235 (4.60%)
  Link 2 (1.99%)
  
  
  ********************************
  Highest Flow Instability Indexes
  ********************************
  Link YS02001619YS02001622 (48)
  Link YS02163601YS02164001 (48)
  Link YS02163301YS02001633 (47)
  Link YS02001629YS02163301 (46)
  Link YS02164001YS02001641 (44)
  
  
  *************************
  Routing Time Step Summary
  *************************
  Minimum Time Step           :     0.34 sec
  Average Time Step           :     0.75 sec
  Maximum Time Step           :     5.00 sec
  Percent in Steady State     :    -0.00
  Average Iterations per Step :     5.05
  Percent Not Converging      :    25.67
  
  
  ***************************
  Subcatchment Runoff Summary
  ***************************
  
  ------------------------------------------------------------------------------------------------------------------------------
                            Total      Total      Total      Total     Imperv       Perv      Total       Total     Peak  Runoff
                           Precip      Runon       Evap      Infil     Runoff     Runoff     Runoff      Runoff   Runoff   Coeff
  Subcatchment                 mm         mm         mm         mm         mm         mm         mm    10^6 ltr      LPS
  ------------------------------------------------------------------------------------------------------------------------------
  sub0                      16.73       0.00       0.00       0.97      14.29       0.20      14.50        0.01     3.66   0.867
  sub1                      16.73       0.00       0.00       1.58      13.63       0.26      13.89        0.09    24.51   0.830
  sub2                      16.73       0.00       0.00       5.80       9.63       0.39      10.02        0.09    22.91   0.599
  sub3                      16.73       0.00       0.00       5.88       9.59       0.31       9.90        0.22    50.49   0.592
  sub4                      16.73       0.00       0.00       1.65      13.47       0.19      13.66        0.28    60.01   0.817
  sub5                      16.73       0.00       0.00       0.99      14.24       0.18      14.42        0.16    43.61   0.862
  sub7                      16.73       0.00       0.00       1.26      13.97       0.24      14.21        0.05    13.82   0.849
  sub8                      16.73       0.00       0.00       1.27      13.96       0.23      14.19        0.09    25.44   0.848
  sub9                      16.73       0.00       0.00       1.27      13.96       0.23      14.19        0.07    19.02   0.848
  sub10                     16.73       0.00       0.00       1.13      14.10       0.21      14.30        0.16    42.73   0.855
  sub11                     16.73       0.00       0.00       1.12      14.11       0.21      14.33        0.17    47.25   0.857
  sub12                     16.73       0.00       0.00       1.83      13.37       0.35      13.71        0.12    35.87   0.820
  sub14                     16.73       0.00       0.00       1.27      13.95       0.23      14.19        0.14    37.43   0.848
  sub15                     16.73       0.00       0.00       4.53      10.73       0.49      11.22        0.19    51.47   0.671
  sub16                     16.73       0.00       0.00       4.88      10.29       0.64      10.93        0.11    32.57   0.653
  sub17                     16.73       0.00       0.00       4.74      10.44       0.61      11.05        0.09    26.81   0.661
  sub22                     16.73       0.00       0.00       6.60       8.75       0.59       9.34        0.59   160.16   0.558
  sub23                     16.73       0.00       0.00       5.59       9.67       0.60      10.27        0.49   134.74   0.614
  sub60                     16.73       0.00       0.00       1.94      11.65       0.06      11.71        3.55   386.89   0.700
  sub61                     16.73       0.00       0.00       2.75      11.65       0.09      11.73        3.62   476.87   0.701
  sub62                     16.73       0.00       0.00       1.26      12.72       0.07      12.79        3.93   491.27   0.765
  sub63                     16.73       0.00       0.00       4.75      10.14       0.10      10.23        3.10   437.54   0.612
  sub64                     16.73       0.00       0.00       2.45      11.19       0.06      11.26        3.42   367.58   0.673
  sub65                     16.73       0.00       0.00       2.11      11.40       0.06      11.46        3.52   372.98   0.685
  sub66                     16.73       0.00       0.00       4.79       9.55       0.06       9.61        2.95   336.52   0.575
  sub67                     16.73       0.00       0.00       1.24      13.25       0.09      13.35        4.12   605.48   0.798
  sub68                     16.73       0.00       0.00       2.25      12.20       0.10      12.30        3.78   521.64   0.735
  sub69                     16.73       0.00       0.00       2.37      12.50       0.14      12.64        2.95   482.20   0.755
  sub70                     16.73      12.90       0.00       8.98      17.16       1.09      18.25        4.18   460.88   0.616
  sub71                     16.73       0.00       0.00       1.27      12.46       0.07      12.53        2.96   345.19   0.749
  sub72                     16.73       0.00       0.00       1.14      10.39       0.03      10.43        2.12   185.81   0.623
  sub73                     16.73      17.77       0.00       9.78      19.72       1.38      21.10        4.96   482.28   0.612
  sub74                     16.73       0.00       0.00      12.48       3.71       0.07       3.78        1.51   261.10   0.226
  
  
  ******************
  Node Depth Summary
  ******************
  
  ---------------------------------------------------------------------------------
                                 Average  Maximum  Maximum  Time of Max    Reported
                                   Depth    Depth      HGL   Occurrence   Max Depth
  Node                 Type       Meters   Meters   Meters  days hr:min      Meters
  ---------------------------------------------------------------------------------
  WS02001211           JUNCTION     0.69     0.80     5.64     0  02:33        0.80
  WS02001212           JUNCTION     0.41     0.52     5.58     0  02:33        0.52
  WS02001213           JUNCTION     0.65     0.78     5.54     0  02:32        0.78
  WS02003069           JUNCTION     0.48     0.65     5.23     0  02:00        0.65
  WS02003072           JUNCTION     0.55     0.70     5.07     0  02:01        0.70
  WS02003073           JUNCTION     0.33     0.43     4.50     0  02:01        0.43
  WS02003060           JUNCTION     0.43     0.57     5.50     0  02:00        0.57
  WS02003066           JUNCTION     0.26     0.36     5.92     0  01:57        0.36
  WS02003059           JUNCTION     0.71     0.84     5.53     0  02:00        0.84
  WS02003067           JUNCTION     0.62     0.79     6.11     0  01:57        0.79
  WS02004401           JUNCTION     0.75     1.12     7.12     0  01:54        1.12
  WS02004402           JUNCTION     0.78     1.12     7.08     0  01:54        1.12
  WS02004403           JUNCTION     0.80     1.11     7.04     0  01:54        1.11
  WS02004404           JUNCTION     0.87     1.16     7.01     0  01:54        1.16
  WS02004406           JUNCTION     0.87     1.11     6.94     0  01:54        1.11
  WS02004409           JUNCTION     0.57     0.86     6.63     0  01:56        0.86
  WS02004410           JUNCTION     0.58     0.86     6.58     0  01:56        0.86
  WS02004411           JUNCTION     0.59     0.85     6.53     0  01:56        0.85
  WS02004412           JUNCTION     0.60     0.84     6.48     0  01:56        0.84
  WS02004413           JUNCTION     0.76     0.98     6.45     0  01:57        0.98
  WS02004405           JUNCTION     0.86     1.14     6.99     0  01:54        1.14
  WS02006109           JUNCTION     0.85     1.28     7.90     0  01:55        1.27
  WS02006110           JUNCTION     0.82     1.12     7.71     0  01:54        1.12
  WS02006111           JUNCTION     0.27     0.63     7.34     0  01:54        0.63
  WS02006112           JUNCTION     0.94     1.41     7.29     0  01:55        1.40
  WS02006113           JUNCTION     0.39     0.63     7.52     0  01:55        0.63
  WS02006115           JUNCTION     0.65     1.08     7.22     0  01:54        1.08
  WS02006116           JUNCTION     0.73     1.13     7.17     0  01:54        1.13
  WS02006230           JUNCTION     0.85     1.92     8.66     0  01:43        1.40
  WS02006231           JUNCTION     0.58     1.41     8.54     0  01:43        1.03
  WS02006232           JUNCTION     0.72     1.33     8.37     0  01:43        1.15
  WS02006234           JUNCTION     0.65     1.25     8.41     0  01:43        1.09
  WS02006235           JUNCTION     0.68     1.33     8.49     0  01:43        1.12
  WS02006238           JUNCTION     0.70     1.38     8.53     0  01:43        1.16
  WS02006240           JUNCTION     0.61     1.69     8.98     0  01:43        1.17
  WS02006242           JUNCTION     0.67     1.55     8.82     0  01:43        1.28
  WS02006243           JUNCTION     0.55     1.48     8.90     0  01:43        1.15
  WS02006245           JUNCTION     0.52     1.56     9.04     0  01:43        0.97
  WS02006247           JUNCTION     0.54     1.41     8.91     0  01:43        0.77
  WS02006248           JUNCTION     0.48     0.84     8.42     0  01:44        0.70
  WS02006249           JUNCTION     0.50     0.70     8.29     0  01:50        0.70
  WS02006239           JUNCTION     0.67     1.63     8.84     0  01:43        1.19
  WS02006251           JUNCTION     0.50     0.79     8.46     0  01:50        0.79
  WS02006252           JUNCTION     0.43     0.59     8.84     0  01:49        0.59
  WS02006253           JUNCTION     0.53     0.82     8.47     0  01:50        0.82
  WS02006256           JUNCTION     1.09     1.21     8.15     0  03:10        1.21
  WS02004138           JUNCTION     0.16     0.19     7.44     0  02:38        0.19
  WS02004407           JUNCTION     0.25     0.37     6.68     0  01:55        0.37
  WS02006228           JUNCTION     0.86     1.40     8.05     0  01:54        1.39
  WS02006229           JUNCTION     0.85     1.44     8.13     0  01:53        1.44
  WS02006280           JUNCTION     0.08     0.25     8.52     0  01:55        0.25
  WS02006284           JUNCTION     0.38     0.64     9.04     0  01:55        0.64
  WS02006287           JUNCTION     0.12     0.38     9.33     0  01:54        0.38
  WSF200               JUNCTION     0.25     0.40     5.63     0  01:58        0.40
  HS02004901           JUNCTION     0.14     0.36    10.18     0  01:52        0.36
  HS02004881           JUNCTION     0.01     0.05     9.08     0  01:54        0.05
  HS02004876           JUNCTION     0.05     0.16     9.19     0  01:55        0.16
  HS02004870           JUNCTION     0.02     0.09     9.38     0  01:55        0.09
  HS02004862           JUNCTION     0.03     0.11     9.49     0  01:55        0.11
  HS02004856           JUNCTION     0.08     0.15     9.58     0  01:55        0.15
  HS02004852           JUNCTION     0.02     0.07     9.59     0  01:55        0.07
  HS02004848           JUNCTION     0.01     0.07     9.67     0  01:55        0.07
  HS02004842           JUNCTION     0.34     0.40     9.67     0  01:55        0.40
  HS02004837           JUNCTION     0.03     0.09     9.67     0  01:55        0.09
  HS02004830           JUNCTION     0.05     0.10     9.57     0  01:56        0.10
  HS02004824           JUNCTION     0.03     0.12     9.53     0  01:55        0.12
  HS02004817           JUNCTION     0.46     0.69     9.53     0  01:55        0.69
  HS02004807           JUNCTION     0.14     0.36     9.53     0  01:55        0.36
  HS02004802           JUNCTION     0.18     0.39     9.52     0  01:55        0.39
  HS02004799           JUNCTION     0.14     0.45     9.66     0  01:53        0.45
  HS02004792           JUNCTION     0.05     0.20     9.73     0  01:52        0.20
  HS02004788           JUNCTION     0.03     0.15    10.05     0  01:53        0.15
  HS02004785           JUNCTION     0.06     0.23    10.14     0  01:52        0.23
  HS02004777           JUNCTION     0.16     0.37    10.17     0  01:52        0.37
  HS02004770           JUNCTION     0.13     0.35    10.18     0  01:52        0.35
  HS02004480           JUNCTION     0.10     0.37     9.61     0  01:53        0.37
  HS02004479           JUNCTION     0.14     0.41     9.61     0  01:53        0.41
  HS02004478           JUNCTION     0.08     0.27     9.50     0  01:54        0.27
  YS02001745           JUNCTION     0.75     0.92     8.43     0  03:00        0.92
  YS02001748           JUNCTION     1.16     1.69     8.76     0  01:50        1.35
  YS02001751           JUNCTION     1.34     1.92     8.80     0  01:48        1.56
  YS02001754           JUNCTION     1.59     1.91     8.52     0  01:48        1.82
  YS02001762           JUNCTION     1.80     2.05     8.45     0  02:36        2.03
  YS02001765           JUNCTION     1.75     1.99     8.44     0  03:07        1.99
  YS02001767           JUNCTION     1.71     1.94     8.43     0  02:52        1.94
  YS02001770           JUNCTION     1.71     1.93     8.42     0  02:37        1.92
  YS02001774           JUNCTION     1.78     2.00     8.43     0  01:47        1.98
  YS02001779           JUNCTION     1.52     1.68     8.37     0  01:47        1.68
  YS02001882           JUNCTION     0.69     1.69     8.40     0  01:57        1.62
  YS02001884           JUNCTION     0.79     1.77     8.39     0  01:57        1.72
  YS02001759           JUNCTION     1.83     2.08     8.45     0  02:26        2.06
  YS02001887           JUNCTION     0.87     1.83     8.36     0  01:57        1.80
  YS02001890           JUNCTION     0.89     1.81     8.32     0  01:57        1.81
  YS02001898           JUNCTION     0.66     1.58     8.31     0  01:57        1.56
  YS02001901           JUNCTION     0.78     1.69     8.29     0  01:57        1.67
  YS02001904           JUNCTION     0.75     1.65     8.28     0  01:57        1.63
  YS02001907           JUNCTION     1.08     1.96     8.25     0  01:57        1.96
  YS02001910           JUNCTION     0.88     1.97     8.48     0  01:57        1.81
  YS02001915           JUNCTION     0.68     1.91     8.63     0  01:57        1.66
  YS02001918           JUNCTION     0.42     1.81     8.88     0  01:57        1.41
  YS02001619           JUNCTION     1.31     1.61     8.54     0  01:48        1.48
  YS02001629           JUNCTION     1.66     1.85     8.40     0  01:48        1.84
  YS02001641           JUNCTION     1.76     1.94     8.37     0  02:13        1.93
  YS02001644           JUNCTION     1.76     1.92     8.35     0  01:50        1.92
  YS02001652           JUNCTION     1.61     2.16     8.76     0  01:54        2.03
  YS02001655           JUNCTION     1.37     2.20     9.05     0  02:11        1.94
  YS02001920           JUNCTION     0.52     2.02     9.02     0  01:59        1.53
  YS02001923           JUNCTION     0.34     1.84     9.10     0  01:59        1.35
  YS02001926           JUNCTION     0.36     1.90     9.35     0  01:58        1.27
  YS02001929           JUNCTION     0.22     1.57     9.26     0  01:59        1.12
  YS02001658           JUNCTION     1.10     2.30     9.44     0  02:11        1.82
  YS02001661           JUNCTION     0.86     2.46     9.86     0  01:54        1.61
  YS02001664           JUNCTION     0.37     0.57     8.49     0  03:49        0.56
  YS02001622           JUNCTION     1.33     1.62     8.52     0  01:48        1.50
  YS02001633           JUNCTION     1.75     1.95     8.40     0  02:00        1.94
  YS02001649           JUNCTION     1.80     2.05     8.44     0  01:54        2.05
  YS02001757           JUNCTION     1.92     2.18     8.44     0  02:59        2.17
  YS02001895           JUNCTION     0.66     1.57     8.32     0  01:57        1.56
  YS02001625           JUNCTION     1.61     1.78     8.38     0  01:46        1.78
  YS02163301           JUNCTION     1.69     1.91     8.43     0  01:49        1.88
  YS02163601           JUNCTION     1.80     1.99     8.39     0  02:12        1.98
  YS02164001           JUNCTION     1.74     1.92     8.38     0  01:50        1.91
  YS02001647           JUNCTION     1.59     1.81     8.42     0  02:11        1.79
  YSB1154              JUNCTION     0.28     0.56     9.62     0  01:53        0.56
  YSB6556              JUNCTION     0.17     0.44     9.61     0  01:53        0.44
  YSB1174              JUNCTION     0.23     0.50     9.61     0  01:53        0.50
  YSB1171              JUNCTION     0.43     0.71     9.61     0  01:53        0.71
  YS02006553           JUNCTION     1.08     2.18     8.46     0  01:57        1.96
  YS02006561           JUNCTION     0.42     1.92     8.58     0  01:57        1.09
  YS02006556           JUNCTION     1.05     2.39     8.70     0  01:57        1.93
  YS02006558           JUNCTION     1.09     2.50     8.77     0  01:57        1.96
  YS02001783           JUNCTION     0.67     2.30     8.44     0  01:57        1.47
  YS02001784           JUNCTION     0.67     2.26     8.32     0  01:57        1.41
  YS02001786           JUNCTION     0.60     2.23     8.26     0  01:57        1.26
  YS02001788           JUNCTION     0.53     2.28     8.26     0  01:57        1.13
  YS02001790           JUNCTION     0.65     1.96     7.60     0  01:57        1.29
  YS02001791           JUNCTION     0.62     2.42     7.89     0  01:56        1.27
  YS02001793           JUNCTION     0.85     2.06     6.89     0  01:56        1.80
  WS02004139           JUNCTION     0.63     0.75     5.66     0  02:33        0.75
  WSC                  OUTFALL      0.33     0.43     1.10     0  02:02        0.43
  3                    OUTFALL      0.11     0.21     6.21     0  03:10        0.21
  4                    OUTFALL      0.06     0.20     7.20     0  01:50        0.20
  5                    OUTFALL      0.00     0.00     5.00     0  00:00        0.00
  JK-storage           STORAGE      3.18     5.80     6.60     0  01:57        5.80
  CC-storage           STORAGE      1.13     1.40     8.40     0  03:03        1.40
  XR-storage           STORAGE      7.32     7.72     5.72     0  02:03        7.72
  
  
  *******************
  Node Inflow Summary
  *******************
  
  -------------------------------------------------------------------------------------------------
                                  Maximum  Maximum                  Lateral       Total        Flow
                                  Lateral    Total  Time of Max      Inflow      Inflow     Balance
                                   Inflow   Inflow   Occurrence      Volume      Volume       Error
  Node                 Type           LPS      LPS  days hr:min    10^6 ltr    10^6 ltr     Percent
  -------------------------------------------------------------------------------------------------
  WS02001211           JUNCTION      7.35   388.86     0  02:40       0.207         7.4       0.325
  WS02001212           JUNCTION      0.00   390.23     0  02:40           0        7.37       0.186
  WS02001213           JUNCTION      0.00   391.50     0  02:39           0        7.36       0.245
  WS02003069           JUNCTION      0.32  1121.79     0  02:00     0.00902        17.7       0.149
  WS02003072           JUNCTION      0.00  1121.76     0  02:00           0        17.7       0.187
  WS02003073           JUNCTION      1.82  1123.62     0  02:01      0.0514        17.7       0.209
  WS02003060           JUNCTION     16.53  1121.48     0  02:00       0.466        17.7       0.141
  WS02003066           JUNCTION      0.00   820.84     0  01:57           0        9.94       0.049
  WS02003059           JUNCTION      0.00   393.31     0  02:39           0        7.35       0.449
  WS02003067           JUNCTION      0.00   820.79     0  01:57           0        9.95       0.101
  WS02004401           JUNCTION      0.00   821.55     0  01:55           0        10.2       0.223
  WS02004402           JUNCTION      0.00   821.55     0  01:55           0        10.2       0.209
  WS02004403           JUNCTION      0.00   821.54     0  01:55           0        10.2       0.189
  WS02004404           JUNCTION      0.16   821.71     0  01:55     0.00457        10.1       0.141
  WS02004406           JUNCTION      0.00   821.76     0  01:55           0        10.1       0.344
  WS02004409           JUNCTION      0.00   821.73     0  01:55           0        10.1       0.183
  WS02004410           JUNCTION      0.00   821.16     0  01:56           0          10       0.204
  WS02004411           JUNCTION      0.00   820.86     0  01:56           0          10       0.208
  WS02004412           JUNCTION      0.00   820.76     0  01:56           0          10       0.222
  WS02004413           JUNCTION      0.00   820.77     0  01:57           0        9.99       0.324
  WS02004405           JUNCTION      0.04   821.75     0  01:55     0.00107        10.1       0.211
  WS02006109           JUNCTION      1.23   796.58     0  01:54      0.0347        10.2       0.218
  WS02006110           JUNCTION      0.00   796.58     0  01:54           0        10.2       0.198
  WS02006111           JUNCTION      0.00   795.86     0  01:55           0        10.2       0.047
  WS02006112           JUNCTION     26.81   821.63     0  01:55      0.0948        10.3       0.298
  WS02006113           JUNCTION      0.00   796.57     0  01:53           0        10.2       0.100
  WS02006115           JUNCTION      0.00   821.65     0  01:55           0        10.2       0.212
  WS02006116           JUNCTION      0.00   821.56     0  01:55           0        10.2       0.200
  WS02006230           JUNCTION     10.28   401.41     0  04:20        0.29        7.55       0.192
  WS02006231           JUNCTION      0.00   391.40     0  04:20           0        7.27       0.143
  WS02006232           JUNCTION      0.00   391.42     0  04:20           0        7.29       0.227
  WS02006234           JUNCTION      0.00   392.98     0  05:11           0        7.29       0.114
  WS02006235           JUNCTION      0.00   392.80     0  05:11           0         7.4       0.152
  WS02006238           JUNCTION      0.00   344.91     0  05:20           0        5.62       0.139
  WS02006240           JUNCTION      0.00   339.59     0  05:20           0        5.62       0.219
  WS02006242           JUNCTION      0.00   342.37     0  01:42           0        5.62       0.267
  WS02006243           JUNCTION      0.00   372.48     0  01:42           0        5.62       0.041
  WS02006245           JUNCTION      0.00   386.14     0  01:42           0        5.63       0.187
  WS02006247           JUNCTION      0.00   392.87     0  01:42           0        5.63       0.124
  WS02006248           JUNCTION      0.00   401.25     0  01:41           0        5.64       0.076
  WS02006249           JUNCTION      0.00   530.08     0  01:45           0        7.09       0.141
  WS02006239           JUNCTION      0.00   344.06     0  05:20           0        5.62       0.212
  WS02006251           JUNCTION      0.08   541.82     0  01:44     0.00217        7.12       0.128
  WS02006252           JUNCTION      0.00   400.00     0  01:40           0        6.56       0.007
  WS02006253           JUNCTION      3.66   142.87     0  01:54      0.0117        0.56       0.657
  WS02006256           JUNCTION      0.00   599.97     0  03:10           0        6.57       0.050
  WS02004138           JUNCTION      0.00   380.00     0  02:30           0        7.21       0.042
  WS02004407           JUNCTION      0.00   821.76     0  01:55           0        10.1       0.080
  WS02006228           JUNCTION      0.00   795.34     0  01:53           0        10.2       0.150
  WS02006229           JUNCTION      0.00   795.70     0  01:53           0        10.2       0.133
  WS02006280           JUNCTION      0.00   656.04     0  01:55           0         2.7       0.002
  WS02006284           JUNCTION      0.10   655.96     0  01:55      0.0027         2.7       0.040
  WS02006287           JUNCTION      0.00   655.81     0  01:54           0         2.7       0.027
  WSF200               JUNCTION      0.00   820.81     0  01:57           0        9.94       0.050
  HS02004901           JUNCTION     32.57    32.57     0  01:50       0.114       0.115       1.559
  HS02004881           JUNCTION     13.82   139.59     0  01:54      0.0479       0.529       0.079
  HS02004876           JUNCTION     24.51   126.37     0  01:54      0.0923       0.482       0.114
  HS02004870           JUNCTION     25.44   102.13     0  01:54      0.0907        0.39       0.027
  HS02004862           JUNCTION     23.11    77.53     0  01:55       0.099       0.299       0.058
  HS02004856           JUNCTION     19.02    54.51     0  01:55      0.0682       0.202       0.723
  HS02004852           JUNCTION      0.00    36.10     0  01:55           0       0.134       0.042
  HS02004848           JUNCTION     50.49    50.49     0  01:57       0.223       0.223       0.020
  HS02004842           JUNCTION      0.00    15.55     0  02:06           0       0.102      14.562
  HS02004837           JUNCTION     49.08    62.50     0  01:55       0.337       0.426       0.190
  HS02004830           JUNCTION      0.15    62.61     0  01:55     0.00423       0.416       0.298
  HS02004824           JUNCTION     60.06   122.20     0  01:58       0.286       0.702       0.077
  HS02004817           JUNCTION      0.60   124.03     0  01:59      0.0169       0.718       2.378
  HS02004807           JUNCTION     47.25   168.28     0  01:57       0.166       0.868       0.499
  HS02004802           JUNCTION      0.00   169.24     0  01:58           0       0.865       0.462
  HS02004799           JUNCTION     37.43   414.53     0  01:52       0.135        1.57       0.167
  HS02004792           JUNCTION    160.44   377.30     0  01:52       0.598        1.44       0.028
  HS02004788           JUNCTION     53.14   218.54     0  01:52        0.24       0.839       0.046
  HS02004785           JUNCTION      0.15   165.59     0  01:52     0.00423       0.601       0.082
  HS02004777           JUNCTION      0.03   165.80     0  01:51    0.000846       0.601       0.872
  HS02004770           JUNCTION    134.74   166.64     0  01:51        0.49       0.602       0.515
  HS02004480           JUNCTION      0.00   492.22     0  01:53           0        1.85       0.064
  HS02004479           JUNCTION      0.00    78.00     0  01:53           0       0.292       0.252
  HS02004478           JUNCTION      0.00   655.76     0  01:54           0         2.7       0.013
  YS02001745           JUNCTION    386.89   386.89     0  02:16        3.55        3.55       0.268
  YS02001748           JUNCTION      0.04   396.66     0  02:16     0.00127        3.54       0.652
  YS02001751           JUNCTION      0.01   396.29     0  02:16     0.00031        3.52       0.684
  YS02001754           JUNCTION      0.26   396.54     0  02:16     0.00733         3.5       0.703
  YS02001762           JUNCTION      0.00   439.70     0  02:04           0        2.21       0.957
  YS02001765           JUNCTION      0.00   439.78     0  02:04           0        2.21       1.107
  YS02001767           JUNCTION      0.54   439.89     0  02:04      0.0151        2.23       1.618
  YS02001770           JUNCTION    491.42   563.62     0  03:01        3.94        4.28       0.734
  YS02001774           JUNCTION      0.00   564.10     0  03:01           0        2.39       1.047
  YS02001779           JUNCTION      0.01   564.53     0  03:01    0.000141        2.36       0.651
  YS02001882           JUNCTION      0.00    19.12     0  01:54           0      0.0244      10.893
  YS02001884           JUNCTION      0.00    43.35     0  01:50           0      0.0597      11.882
  YS02001759           JUNCTION    476.91   878.51     0  02:05        3.62        5.45       0.420
  YS02001887           JUNCTION    605.93   606.08     0  02:16        4.13        4.16       0.212
  YS02001890           JUNCTION      0.00   606.29     0  02:15           0        4.11       0.236
  YS02001898           JUNCTION      0.00   521.15     0  01:58           0           4       0.079
  YS02001901           JUNCTION      0.00   521.49     0  01:58           0           4       0.183
  YS02001904           JUNCTION      0.00   521.43     0  01:58           0        3.99       0.167
  YS02001907           JUNCTION      0.00  1186.13     0  01:59           0        9.13       0.265
  YS02001910           JUNCTION      0.00   669.38     0  01:59           0        5.15       0.233
  YS02001915           JUNCTION    345.21   669.15     0  01:59        2.96         5.2       0.122
  YS02001918           JUNCTION      0.00   391.17     0  01:59           0        2.27       0.091
  YS02001619           JUNCTION    336.52   336.52     0  02:16        2.95        2.95       0.412
  YS02001629           JUNCTION      0.00   200.85     0  01:47           0        1.44       2.012
  YS02001641           JUNCTION      0.00   409.76     0  01:48           0        4.85       0.431
  YS02001644           JUNCTION    367.62  1358.50     0  03:00        3.42        11.6       0.222
  YS02001652           JUNCTION      0.00   480.35     0  02:11           0        3.06       0.739
  YS02001655           JUNCTION      0.15   480.00     0  02:11     0.00434        3.08       0.829
  YS02001920           JUNCTION      2.87   390.92     0  01:59      0.0809        2.25       0.144
  YS02001923           JUNCTION      0.04   317.18     0  02:00     0.00106        2.15       0.046
  YS02001926           JUNCTION      0.05   270.38     0  01:59     0.00147        2.14       0.150
  YS02001929           JUNCTION    185.81   193.48     0  01:58        2.12        2.13       0.028
  YS02001658           JUNCTION      0.00   488.36     0  02:09           0         3.1       0.706
  YS02001661           JUNCTION      0.00   776.62     0  02:07           0        3.82      -0.231
  YS02001664           JUNCTION    437.54   437.54     0  02:16         3.1        3.83       0.131
  YS02001622           JUNCTION      0.00   336.85     0  02:16           0        2.94       1.092
  YS02001633           JUNCTION    373.18   410.22     0  01:48        3.53        4.92       0.650
  YS02001649           JUNCTION      0.00   953.77     0  02:02           0        6.37       0.580
  YS02001757           JUNCTION      0.00  2144.78     0  02:05           0        11.5       0.797
  YS02001895           JUNCTION      0.00   521.21     0  01:58           0           4       0.135
  YS02001625           JUNCTION      0.00   336.53     0  02:16           0        2.91       1.361
  YS02163301           JUNCTION      0.00   223.46     0  01:48           0        1.44       1.684
  YS02163601           JUNCTION      0.11   410.28     0  01:48      0.0031        4.86       0.616
  YS02164001           JUNCTION      0.00   409.96     0  01:48           0        4.85       0.407
  YS02001647           JUNCTION      0.00   631.97     0  03:01           0        5.25       0.539
  YSB1154              JUNCTION     43.61    43.61     0  01:53       0.163       0.164       0.888
  YSB6556              JUNCTION      0.00    43.64     0  01:53           0       0.165       0.764
  YSB1174              JUNCTION     35.87    35.87     0  01:50        0.12        0.12       1.078
  YSB1171              JUNCTION      0.00    78.02     0  01:52           0       0.291       2.227
  YS02006553           JUNCTION      0.00   683.10     0  03:22           0        7.14       0.217
  YS02006561           JUNCTION      0.00  1097.63     0  01:57           0        10.9       0.008
  YS02006556           JUNCTION      0.00   682.80     0  03:22           0        7.15       0.161
  YS02006558           JUNCTION    522.52  1097.78     0  01:57        3.81        10.9       0.049
  YS02001783           JUNCTION      0.00  1079.12     0  01:57           0        10.9       0.023
  YS02001784           JUNCTION      1.06  1080.09     0  01:57      0.0299        10.9       0.036
  YS02001786           JUNCTION      0.06  1079.92     0  01:57     0.00159        10.9       0.033
  YS02001788           JUNCTION      0.07  1076.80     0  01:57       0.002        10.9       0.018
  YS02001790           JUNCTION      0.15  1048.98     0  01:57     0.00437        10.9       0.027
  YS02001791           JUNCTION      0.00  1082.55     0  01:55           0        10.9       0.008
  YS02001793           JUNCTION      0.00  1000.77     0  01:55           0        10.9       0.004
  WS02004139           JUNCTION      0.32   380.32     0  02:38     0.00905        7.22       0.356
  WSC                  OUTFALL       0.00  1123.75     0  02:02           0        17.6       0.000
  3                    OUTFALL       0.00   518.94     0  03:10           0        4.76       0.000
  4                    OUTFALL       0.00   317.43     0  01:50           0        1.44       0.000
  5                    OUTFALL       0.00     0.00     0  00:00           0           0       0.000 ltr
  JK-storage           STORAGE       0.00  1000.14     0  01:57           0        11.1      -4.844
  CC-storage           STORAGE       0.00  2144.49     0  02:05           0        9.87       0.275
  XR-storage           STORAGE     844.69   844.69     0  03:01        12.1        12.7      -0.001
  
  
  **********************
  Node Surcharge Summary
  **********************
  
  Surcharging occurs when water rises above the top of the highest conduit.
  ---------------------------------------------------------------------
                                               Max. Height   Min. Depth
                                   Hours       Above Crown    Below Rim
  Node                 Type      Surcharged         Meters       Meters
  ---------------------------------------------------------------------
  WS02004401           JUNCTION        0.55          0.122        1.538
  WS02004402           JUNCTION        0.58          0.123        1.617
  WS02004403           JUNCTION        0.60          0.111        1.919
  WS02004404           JUNCTION        0.78          0.163        2.617
  WS02004406           JUNCTION        0.71          0.110        2.340
  WS02004405           JUNCTION        0.75          0.143        2.657
  WS02006109           JUNCTION        4.10          0.461        1.359
  WS02006110           JUNCTION        1.50          0.214        1.636
  WS02006112           JUNCTION        1.64          0.405        1.275
  WS02006115           JUNCTION        0.33          0.068        2.182
  WS02006116           JUNCTION        0.39          0.073        2.217
  WS02006230           JUNCTION        0.74          0.836        0.734
  WS02006231           JUNCTION        0.99          0.703        0.827
  WS02006232           JUNCTION        4.37          0.629        0.851
  WS02006234           JUNCTION        1.67          0.528        0.712
  WS02006235           JUNCTION        3.36          0.620        0.670
  WS02006238           JUNCTION        3.85          0.663        0.767
  WS02006240           JUNCTION        1.66          0.980        0.410
  WS02006242           JUNCTION        3.33          0.820        0.000
  WS02006243           JUNCTION        0.57          0.770        0.000
  WS02006245           JUNCTION        0.33          0.850        0.000
  WS02006247           JUNCTION        0.30          0.696        0.064
  WS02006248           JUNCTION        0.01          0.117        0.263
  WS02006239           JUNCTION        1.95          0.887        0.403
  WS02006252           JUNCTION        3.96          0.193        0.907
  WS02006228           JUNCTION        3.92          0.574        1.626
  YS02001748           JUNCTION        5.99          0.606        0.584
  YS02001751           JUNCTION        6.02          0.919        0.281
  YS02001754           JUNCTION        6.04          0.864        0.286
  YS02001762           JUNCTION        6.09          1.049        0.101
  YS02001765           JUNCTION        6.08          0.989        0.111
  YS02001767           JUNCTION        6.07          0.945        0.085
  YS02001770           JUNCTION        6.07          0.896        0.024
  YS02001774           JUNCTION        6.08          1.003        0.047
  YS02001779           JUNCTION        6.04          0.680        0.000
  YS02001882           JUNCTION        1.76          0.689        0.141
  YS02001884           JUNCTION        1.79          0.715        0.155
  YS02001759           JUNCTION        6.09          1.081        0.129
  YS02001887           JUNCTION        1.87          0.777        0.173
  YS02001890           JUNCTION        1.90          0.760        0.000
  YS02001898           JUNCTION        1.71          0.548        0.192
  YS02001901           JUNCTION        1.84          0.686        0.184
  YS02001904           JUNCTION        1.81          0.646        0.204
  YS02001907           JUNCTION        2.25          0.950        0.000
  YS02001910           JUNCTION        1.94          0.973        0.127
  YS02001915           JUNCTION        1.75          0.914        0.086
  YS02001918           JUNCTION        1.51          0.810        0.000
  YS02001619           JUNCTION        6.02          0.610        0.000
  YS02001629           JUNCTION        6.02          0.470        0.000
  YS02001641           JUNCTION        6.08          0.935        0.165
  YS02001644           JUNCTION        6.08          0.920        0.000
  YS02001652           JUNCTION        6.05          1.130        0.000
  YS02001655           JUNCTION        6.02          1.200        0.000
  YS02001920           JUNCTION        1.54          1.016        0.124
  YS02001923           JUNCTION        0.01          0.627        0.193
  YS02001926           JUNCTION        0.01          0.900        0.000
  YS02001929           JUNCTION        0.01          0.570        0.210
  YS02001658           JUNCTION        5.99          1.300        0.000
  YS02001661           JUNCTION        0.34          1.390        0.000
  YS02001622           JUNCTION        6.02          0.620        0.000
  YS02001633           JUNCTION        6.08          0.926        0.134
  YS02001649           JUNCTION        6.08          1.050        0.000
  YS02001757           JUNCTION        6.12          1.181        0.029
  YS02001895           JUNCTION        1.73          0.574        0.176
  YS02001625           JUNCTION        6.05          0.780        0.000
  YS02163301           JUNCTION        6.07          0.914        0.116
  YS02163601           JUNCTION        6.09          0.990        0.090
  YS02164001           JUNCTION        6.08          0.919        0.181
  YS02001647           JUNCTION        6.05          0.807        0.093
  YS02006553           JUNCTION        2.29          1.176        0.014
  YS02006561           JUNCTION        1.61          1.122        0.028
  YS02006556           JUNCTION        2.11          1.350        0.000
  YS02006558           JUNCTION        2.09          1.400        0.000
  YS02001783           JUNCTION        2.14          1.502        0.098
  YS02001784           JUNCTION        2.19          1.455        0.035
  YS02001786           JUNCTION        2.07          1.430        0.000
  YS02001788           JUNCTION        2.04          1.480        0.000
  YS02001790           JUNCTION        2.84          1.157        0.000
  YS02001791           JUNCTION        2.87          1.625        0.295
  YS02001793           JUNCTION        2.93          1.055        1.545
  
  
  *********************
  Node Flooding Summary
  *********************
  
  Flooding refers to all water that overflows a node, whether it ponds or not.
  --------------------------------------------------------------------------
                                                             Total   Maximum
                                 Maximum   Time of Max       Flood    Ponded
                        Hours       Rate    Occurrence      Volume     Depth
  Node                 Flooded       LPS   days hr:min    10^6 ltr    Meters
  --------------------------------------------------------------------------
  WS02006242              0.01     67.68      0  01:43       0.000     0.000
  WS02006243              0.01     97.56      0  01:43       0.000     0.000
  WS02006245              0.01     29.60      0  01:43       0.000     0.000
  YS02001779              3.27    564.34      0  03:01       2.344     0.000
  YS02001890              0.55     89.70      0  02:15       0.100     0.000
  YS02001907              1.38    667.61      0  01:59       1.976     0.000
  YS02001918              0.01     89.99      0  01:57       0.000     0.000
  YS02001619              0.01     57.62      0  01:48       0.000     0.000
  YS02001629              0.01    155.48      0  01:48       0.000     0.000
  YS02001644              4.28   1358.26      0  03:00       9.728     0.000
  YS02001652              0.01      6.06      0  03:35       0.000     0.000
  YS02001655              0.01     12.71      0  02:11       0.000     0.000
  YS02001926              0.01    100.19      0  01:58       0.000     0.000
  YS02001658              0.01      6.71      0  02:11       0.000     0.000
  YS02001661              0.01    137.68      0  02:11       0.000     0.000
  YS02001622              0.01     55.96      0  01:49       0.000     0.000
  YS02001649              0.11     40.38      0  02:11       0.004     0.000
  YS02001625              2.03    326.15      0  02:16       1.450     0.000
  YS02006556              0.01     22.40      0  01:57       0.000     0.000
  YS02006558              0.01     10.95      0  01:57       0.000     0.000
  YS02001786              0.01     53.85      0  01:57       0.000     0.000
  YS02001788              0.01    121.73      0  01:57       0.000     0.000
  YS02001790              0.01    153.89      0  01:57       0.000     0.000
  JK-storage              2.54    968.27      0  02:20       5.120     0.000
  XR-storage              4.71    588.47      0  03:10       4.571     0.000
  
  
  **********************
  Storage Volume Summary
  **********************
  
  --------------------------------------------------------------------------------------------------
                         Average     Avg  Evap Exfil       Maximum     Max    Time of Max    Maximum
                          Volume    Pcnt  Pcnt  Pcnt        Volume    Pcnt     Occurrence    Outflow
  Storage Unit           1000 m3    Full  Loss  Loss       1000 m3    Full    days hr:min        LPS
  --------------------------------------------------------------------------------------------------
  JK-storage               0.160      55     0     0         0.291     100       0  01:57     599.97
  CC-storage               3.160      20     0     0         3.893      25       0  03:03     400.00
  XR-storage               0.878      95     0     0         0.926     100       0  02:03     380.00
  
  
  ***********************
  Outfall Loading Summary
  ***********************
  
  -----------------------------------------------------------
                         Flow       Avg       Max       Total
                         Freq      Flow      Flow      Volume
  Outfall Node           Pcnt       LPS       LPS    10^6 ltr
  -----------------------------------------------------------
  WSC                   99.99    698.76   1123.75      17.649
  3                     93.22    229.40    518.94       4.762
  4                     65.00     91.14    317.43       1.441
  5                      0.00      0.00      0.00       0.000
  -----------------------------------------------------------
  System                64.55   1019.30   1671.11      23.852
  
  
  ********************
  Link Flow Summary
  ********************
  
  -----------------------------------------------------------------------------
                                 Maximum  Time of Max   Maximum    Max/    Max/
                                  |Flow|   Occurrence   |Veloc|    Full    Full
  Link                 Type          LPS  days hr:min     m/sec    Flow   Depth
  -----------------------------------------------------------------------------
  WS02003066WSF200     CONDUIT    820.81     0  01:57      2.94    0.14    0.30
  WS02006287WS02006284 CONDUIT    655.86     0  01:55      2.36    0.30    0.38
  WS02006284WS02006280 CONDUIT    656.04     0  01:55      2.59    0.27    0.36
  WS02006280WS02006229 CONDUIT    656.04     0  01:55      4.20    0.14    0.26
  WS02006229WS02006228 CONDUIT    795.34     0  01:53      1.58    2.63    1.00
  WS02006256WS02006235 CONDUIT    166.25     0  00:01      2.58    1.76    1.00
  WS02006253WS02006251 CONDUIT    148.06     0  01:55      0.59    0.44    1.00
  WS02006252WS02006251 CONDUIT    400.66     0  04:10      3.19    1.47    1.00
  WS02006251WS02006249 CONDUIT    530.08     0  01:45      1.38    1.53    1.00
  WS02006249WS02006248 CONDUIT    401.25     0  01:41      1.30    2.20    0.98
  WS02006248WS02006247 CONDUIT    392.87     0  01:42      1.27    0.86    1.00
  WS02006247WS02006245 CONDUIT    386.14     0  01:42      1.23    3.06    1.00
  WS02006245WS02006243 CONDUIT    372.48     0  01:42      1.29    1.10    1.00
  WS02006243WS02006242 CONDUIT    342.37     0  01:42      1.08    0.73    1.00
  WS02006242WS02006240 CONDUIT    339.59     0  05:20      0.90    1.35    1.00
  WS02006240WS02006239 CONDUIT    344.06     0  05:20      0.94    1.08    1.00
  WS02006239WS02006238 CONDUIT    344.91     0  05:20      0.91    1.10    1.00
  WS02006238WS02006235 CONDUIT    344.59     0  05:20      1.25    0.77    1.00
  WS02006235WS02006234 CONDUIT    392.98     0  05:11      1.03    4.15    1.00
  WS02006234WS02006232 CONDUIT    391.42     0  04:20      1.13    0.79    1.00
  WS02006232WS02006231 CONDUIT    391.40     0  04:20      1.06    0.82    1.00
  WS02006231WS02006230 CONDUIT    391.13     0  04:20      1.33    5.93    1.00
  WS02006230WS02006229 CONDUIT    401.22     0  04:21      1.04    8.93    1.00
  WS02006228WS02006109 CONDUIT    795.35     0  01:54      1.58    3.48    1.00
  WS02006116WS02004401 CONDUIT    821.55     0  01:55      1.05    1.13    1.00
  WS02006115WS02006116 CONDUIT    821.56     0  01:55      1.06    1.05    1.00
  WS02006113WS02006111 CONDUIT    795.86     0  01:55      2.69    0.95    0.79
  WS02006112WS02006115 CONDUIT    821.65     0  01:55      1.05    0.48    1.00
  WS02006111WS02006112 CONDUIT    796.53     0  01:55      1.85    0.38    0.89
  WS02006110WS02006113 CONDUIT    796.57     0  01:53      1.68    0.72    0.89
  WS02006109WS02006110 CONDUIT    796.58     0  01:54      1.58    1.53    1.00
  WS02004411WS02004412 CONDUIT    820.76     0  01:56      1.16    1.17    0.85
  WS02004401WS02004402 CONDUIT    821.55     0  01:55      1.05    0.99    1.00
  WS02004413WS02003067 CONDUIT    820.79     0  01:57      1.41    0.35    0.69
  WS02004412WS02004413 CONDUIT    820.77     0  01:57      1.09    0.55    0.91
  WS02004410WS02004411 CONDUIT    820.86     0  01:56      1.14    1.12    0.86
  WS02004409WS02004410 CONDUIT    821.16     0  01:56      1.14    1.06    0.86
  WS02004407WS02004409 CONDUIT    821.73     0  01:55      1.69    0.29    0.62
  WS02004406WS02004407 CONDUIT    821.76     0  01:55      1.43    0.37    0.68
  WS02004405WS02004406 CONDUIT    821.76     0  01:55      1.05    1.62    1.00
  WS02004404WS02004405 CONDUIT    821.72     0  01:55      1.05    8.05    1.00
  WS02004403WS02004404 CONDUIT    821.55     0  01:55      1.05    0.59    1.00
  WS02004402WS02004403 CONDUIT    821.54     0  01:55      1.05    1.18    1.00
  WS02004139WS02001211 CONDUIT    381.51     0  02:40      0.69    0.48    0.60
  WS02004138WS02004139 CONDUIT    380.00     0  02:38      2.94    0.08    0.44
  WS02003067WS02003066 CONDUIT    820.84     0  01:57      1.53    0.26    0.48
  WS02001213WS02003059 CONDUIT    393.31     0  02:39      0.65    0.65    0.80
  WS02001212WS02001213 CONDUIT    391.50     0  02:39      1.20    0.60    0.49
  WS02001211WS02001212 CONDUIT    390.23     0  02:40      0.75    0.30    0.66
  WS02003072WS02003073 CONDUIT   1121.80     0  02:01      1.84    2.42    0.53
  WS02003069WS02003072 CONDUIT   1121.76     0  02:00      1.72    0.54    0.56
  WS02003060WS02003069 CONDUIT   1121.47     0  02:00      1.95    0.44    0.51
  WS02003059WS02003060 CONDUIT    395.63     0  02:38      0.82    0.26    0.70
  HS02004901HS02004770 CONDUIT     31.96     0  01:52      0.09    0.12    0.51
  HS02004876HS02004881 CONDUIT    126.38     0  01:55      1.20    1.34    0.15
  HS02004870HS02004876 CONDUIT    102.10     0  01:55      0.82    0.07    0.18
  HS02004842HS02004848 CONDUIT     15.55     0  02:06      0.07    0.01    0.33
  HS02004837HS02004842 CONDUIT     15.96     0  02:07      0.41    0.01    0.35
  HS02004830HS02004837 CONDUIT     62.46     0  01:55      0.66    0.06    0.14
  HS02004824HS02004830 CONDUIT     62.57     0  01:56      0.62    0.08    0.16
  HS02004817HS02004824 CONDUIT    123.43     0  01:59      0.31    0.06    0.58
  HS02004770HS02004777 CONDUIT    165.77     0  01:51      0.46    0.30    0.52
  HS02004799HS02004480 CONDUIT    414.30     0  01:53      1.02    0.52    0.58
  HS02004792HS02004799 CONDUIT    377.20     0  01:52      1.15    0.23    0.47
  HS02004788HS02004792 CONDUIT    218.44     0  01:53      1.24    0.14    0.25
  HS02004785HS02004788 CONDUIT    165.54     0  01:53      0.86    1.25    0.27
  HS02004777HS02004785 CONDUIT    165.44     0  01:52      0.54    0.20    0.44
  HS02004480HS02004478 CONDUIT    492.13     0  01:53      1.52    2.07    0.46
  HS02004479HS02004480 CONDUIT     78.30     0  01:54      0.27    0.08    0.55
  HS02004862HS02004870 CONDUIT     77.52     0  01:55      0.79    0.08    0.14
  HS02004848HS02004852 CONDUIT     36.10     0  01:55      0.52    0.04    0.10
  HS02004856HS02004862 CONDUIT     54.46     0  01:55      0.59    0.05    0.13
  HS02004852HS02004856 CONDUIT     36.15     0  01:56      0.33    0.04    0.16
  HS02004802HS02004478 CONDUIT    170.22     0  01:58      0.53    0.15    0.47
  HS02004478WS02006287 CONDUIT    655.81     0  01:54      2.08    0.18    0.35
  HS02004817HS02004807 CONDUIT    125.36     0  01:59      0.24    0.07    0.75
  HS02004807HS02004802 CONDUIT    169.24     0  01:58      0.47    0.32    0.53
  YS02001759YS02001757 CONDUIT    878.57     0  02:05      1.12    0.62    1.00
  YS02001762YS02001759 CONDUIT    439.64     0  02:04      0.56    0.51    1.00
  YS02001765YS02001762 CONDUIT    439.70     0  02:04      0.56    0.41    1.00
  YS02001770YS02001767 CONDUIT    439.36     0  02:04      0.56    1.74    1.00
  YS02001774YS02001770 CONDUIT    564.10     0  03:01      0.72    0.36    1.00
  YS02001779YS02001774 CONDUIT    564.52     0  03:01      0.72    0.28    1.00
  YS02001649YS02001757 CONDUIT    954.21     0  02:02      1.21    0.58    1.00
  YS02001767YS02001765 CONDUIT    439.78     0  02:04      0.56    0.55    1.00
  YS02006561YS02001783 CONDUIT   1079.12     0  01:57      2.26    0.56    1.00
  YS02001783YS02001784 CONDUIT   1079.03     0  01:57      2.15    1.49    1.00
  YS02001784YS02001785 CONDUIT   1079.87     0  01:57      2.15    2.51    1.00
  YS02001788YS02001790 CONDUIT   1048.82     0  01:57      2.59    0.77    1.00
  YS02001790YS02001791 CONDUIT   1082.55     0  01:55      3.23    1.18    1.00
  YS02001791YS02001793 CONDUIT   1000.77     0  01:55      6.21    0.43    1.00
  YS02001910YS02001907 CONDUIT    669.18     0  01:59      0.85    0.38    1.00
  YS02001786YS02001788 CONDUIT   1076.73     0  01:57      2.36    2.07    1.00
  YS02001915YS02001910 CONDUIT    669.38     0  01:59      0.85    0.33    1.00
  YS02001918YS02001915 CONDUIT    391.24     0  01:59      0.50    0.22    1.00
  YS02001923YS02001920 CONDUIT    388.05     0  01:59      0.78    0.17    1.00
  YS02001926YS02001923 CONDUIT    317.14     0  02:00      0.87    0.45    1.00
  YS02001929YS02001926 CONDUIT    270.33     0  01:59      0.93    0.13    1.00
  YS02001920YS02001918 CONDUIT    391.17     0  01:59      0.76    0.38    1.00
  YS02001629YS02163301 CONDUIT    223.46     0  01:48      0.28    0.28    1.00
  YS02001619YS02001622 CONDUIT    336.85     0  02:16      0.76    0.50    1.00
  YS02001622YS02001625 CONDUIT    336.53     0  02:16      0.43    0.18    1.00
  YS02001625YS02001629 CONDUIT    197.39     0  01:47      0.31    0.09    1.00
  YS02163301YS02001633 CONDUIT    223.26     0  01:48      0.28    0.21    1.00
  YS02163601YS02164001 CONDUIT    409.96     0  01:48      0.52    0.36    1.00
  YS02164001YS02001641 CONDUIT    409.76     0  01:48      0.52    0.56    1.00
  YS02001641YS02001644 CONDUIT    409.87     0  01:48      0.52    1.33    1.00
  YS02001647YS02001649 CONDUIT    631.97     0  03:01      0.80    0.33    1.00
  YS02006553YS02006556 CONDUIT    682.80     0  03:22      0.87    0.58    1.00
  YS02006556YS02006558 CONDUIT    683.06     0  03:22      0.87    0.54    1.00
  YSB6556YSB1171       CONDUIT     43.98     0  01:54      0.13    0.05    0.82
  YS02001907YS02006553 CONDUIT    683.10     0  03:22      0.76    0.80    1.00
  YS02006558YS02006561 CONDUIT   1097.63     0  01:57      3.88    2.43    1.00
  YS02001633YS02163601 CONDUIT    410.17     0  01:48      0.52    0.43    1.00
  YS02001644YS02001647 CONDUIT    632.32     0  03:01      0.81    0.37    1.00
  YS02001745YS02001748 CONDUIT    396.62     0  02:16      1.73    0.15    0.96
  YS02001748YS02001751 CONDUIT    396.28     0  02:16      1.26    0.20    1.00
  YS02001751YS02001754 CONDUIT    396.28     0  02:16      1.03    0.19    1.00
  YS02001754YS02001757 CONDUIT    396.21     0  02:16      0.50    0.16    1.00
  YS02001882YS02001884 CONDUIT     19.12     0  01:54      0.12    0.02    1.00
  YS02001884YS02001887 CONDUIT     43.35     0  01:50      0.09    0.06    1.00
  YS02001890YS02001895 CONDUIT    521.21     0  01:58      0.66    0.24    1.00
  YS02001895YS02001898 CONDUIT    521.15     0  01:58      0.66    0.90    1.00
  YS02001898YS02001901 CONDUIT    521.49     0  01:58      0.66    0.34    1.00
  YS02001901YS02001904 CONDUIT    521.43     0  01:58      0.66    0.81    1.00
  YS02001904YS02001907 CONDUIT    520.99     0  01:58      0.66    0.18    1.00
  YS02001887YS02001890 CONDUIT    606.29     0  02:15      0.77    1.04    1.00
  YS02001652YS02001649 CONDUIT    480.42     0  02:11      0.61    0.24    1.00
  YS02001655YS02001652 CONDUIT    480.35     0  02:11      1.09    0.23    1.00
  YS02001658YS02001655 CONDUIT    479.85     0  02:11      1.45    0.20    1.00
  YS02001661YS02001658 CONDUIT    488.36     0  02:09      1.85    0.19    1.00
  YS02001664YS02001661 CONDUIT    776.62     0  02:07      1.75    0.24    0.77
  YSB1154YSB6556       CONDUIT     43.64     0  01:53      0.17    0.08    0.72
  YSB1174YSB1171       CONDUIT     35.14     0  01:50      0.10    0.05    0.83
  YSB1171HS02004479    CONDUIT     78.00     0  01:53      0.54    0.05    0.67
  HS02004881HS02006253 CONDUIT    139.58     0  01:55      2.08    0.03    0.38
  YS02001793JiankangQianchi CONDUIT   1000.14     0  01:57     13.01    0.08    1.00
  YS02001757CaochengTiaoxuchi CONDUIT   2144.49     0  02:05      3.81    0.94    1.00
  WSF200WS02003060     CONDUIT    820.59     0  01:57      1.94    0.18    0.40
  1                    CONDUIT   1123.75     0  02:02      3.43    0.39    0.43
  2                    CONDUIT    317.43     0  01:50      6.49    0.76    0.65
  3                    CONDUIT    518.94     0  03:10      9.86    0.83    0.70
  4                    CONDUIT      0.00     0  00:00      0.00    0.00    0.00
  CC-Pump-1            PUMP       200.00     0  01:40              1.00
  CC-Pump-2            PUMP       200.00     0  01:40              1.00
  JK-Pump-1            PUMP       300.00     0  03:00              1.00
  JK-Pump-2            PUMP       300.00     0  00:00              1.00
  XR-Pump-1            PUMP        95.00     0  00:00              1.00
  XR-Pump-2            PUMP        95.00     0  00:00              1.00
  XR-Pump-3            PUMP        95.00     0  00:30              1.00
  XR-Pump-4            PUMP        95.00     0  01:00              1.00
  
  
  ***************************
  Flow Classification Summary
  ***************************
  
  -------------------------------------------------------------------------------------
                      Adjusted    ---------- Fraction of Time in Flow Class ---------- 
                       /Actual         Up    Down  Sub   Sup   Up    Down  Norm  Inlet 
  Conduit               Length    Dry  Dry   Dry   Crit  Crit  Crit  Crit  Ltd   Ctrl  
  -------------------------------------------------------------------------------------
  WS02003066WSF200        1.00   0.06  0.00  0.00  0.00  0.94  0.00  0.00  0.57  0.00
  WS02006287WS02006284    1.00   0.03  0.01  0.00  0.59  0.36  0.00  0.00  0.65  0.00
  WS02006284WS02006280    1.00   0.04  0.00  0.00  0.00  0.00  0.00  0.96  0.00  0.00
  WS02006280WS02006229    1.00   0.04  0.00  0.00  0.00  0.01  0.00  0.95  0.00  0.00
  WS02006229WS02006228    1.00   0.00  0.00  0.00  0.99  0.00  0.00  0.01  0.00  0.00
  WS02006256WS02006235    1.00   0.00  0.00  0.00  1.00  0.00  0.00  0.00  0.00  0.00
  WS02006253WS02006251    1.00   0.03  0.01  0.00  0.96  0.00  0.00  0.00  0.00  0.00
  WS02006252WS02006251    1.00   0.06  0.00  0.00  0.00  0.00  0.94  0.00  0.00  0.00
  WS02006251WS02006249    1.00   0.00  0.00  0.00  1.00  0.00  0.00  0.00  0.18  0.00
  WS02006249WS02006248    1.00   0.00  0.02  0.00  0.94  0.00  0.04  0.00  0.00  0.00
  WS02006248WS02006247    1.00   0.02  0.00  0.00  0.98  0.00  0.00  0.00  0.06  0.00
  WS02006247WS02006245    1.00   0.02  0.00  0.00  0.98  0.00  0.00  0.00  0.00  0.00
  WS02006245WS02006243    1.00   0.01  0.00  0.00  0.96  0.00  0.00  0.03  0.01  0.00
  WS02006243WS02006242    1.00   0.01  0.00  0.00  0.99  0.00  0.00  0.00  0.16  0.00
  WS02006242WS02006240    1.00   0.00  0.00  0.00  1.00  0.00  0.00  0.00  0.00  0.00
  WS02006240WS02006239    1.00   0.00  0.00  0.00  0.97  0.00  0.00  0.02  0.01  0.00
  WS02006239WS02006238    1.00   0.00  0.00  0.00  1.00  0.00  0.00  0.00  0.00  0.00
  WS02006238WS02006235    1.00   0.00  0.00  0.00  1.00  0.00  0.00  0.00  0.00  0.00
  WS02006235WS02006234    1.00   0.00  0.00  0.00  0.97  0.00  0.03  0.00  0.00  0.00
  WS02006234WS02006232    1.00   0.00  0.00  0.00  1.00  0.00  0.00  0.00  0.03  0.00
  WS02006232WS02006231    1.00   0.00  0.00  0.00  0.99  0.00  0.00  0.00  0.00  0.00
  WS02006231WS02006230    1.00   0.00  0.00  0.00  0.80  0.00  0.20  0.00  0.00  0.00
  WS02006230WS02006229    1.00   0.00  0.00  0.00  0.99  0.00  0.00  0.01  0.01  0.00
  WS02006228WS02006109    1.00   0.00  0.00  0.00  1.00  0.00  0.00  0.00  0.00  0.00
  WS02006116WS02004401    1.00   0.02  0.00  0.00  0.98  0.00  0.00  0.00  0.00  0.00
  WS02006115WS02006116    1.00   0.02  0.00  0.00  0.97  0.00  0.00  0.01  0.00  0.00
  WS02006113WS02006111    1.00   0.02  0.00  0.00  0.07  0.92  0.00  0.00  0.09  0.00
  WS02006112WS02006115    1.00   0.02  0.00  0.00  0.98  0.00  0.00  0.00  0.00  0.00
  WS02006111WS02006112    1.00   0.02  0.00  0.00  0.98  0.00  0.00  0.00  0.88  0.00
  WS02006110WS02006113    1.00   0.01  0.01  0.00  0.98  0.00  0.00  0.00  0.00  0.00
  WS02006109WS02006110    1.00   0.00  0.01  0.00  0.98  0.00  0.01  0.00  0.00  0.00
  WS02004411WS02004412    1.00   0.03  0.00  0.00  0.97  0.00  0.00  0.00  0.00  0.00
  WS02004401WS02004402    1.00   0.02  0.00  0.00  0.98  0.00  0.00  0.00  0.00  0.00
  WS02004413WS02003067    1.00   0.04  0.01  0.00  0.00  0.00  0.95  0.00  0.00  0.00
  WS02004412WS02004413    1.00   0.04  0.00  0.00  0.96  0.00  0.00  0.00  0.03  0.00
  WS02004410WS02004411    1.00   0.03  0.00  0.00  0.97  0.00  0.00  0.00  0.03  0.00
  WS02004409WS02004410    1.00   0.03  0.00  0.00  0.97  0.00  0.00  0.00  0.03  0.00
  WS02004407WS02004409    1.00   0.03  0.00  0.00  0.96  0.00  0.00  0.00  0.89  0.00
  WS02004406WS02004407    1.00   0.00  0.03  0.00  0.97  0.00  0.00  0.00  0.00  0.00
  WS02004405WS02004406    1.00   0.00  0.00  0.00  1.00  0.00  0.00  0.00  0.01  0.00
  WS02004404WS02004405    1.00   0.00  0.00  0.00  1.00  0.00  0.00  0.00  0.00  0.00
  WS02004403WS02004404    1.00   0.00  0.02  0.00  0.98  0.00  0.00  0.00  0.01  0.00
  WS02004402WS02004403    1.00   0.02  0.00  0.00  0.98  0.00  0.00  0.00  0.00  0.00
  WS02004139WS02001211    1.00   0.00  0.00  0.00  1.00  0.00  0.00  0.00  0.00  0.00
  WS02004138WS02004139    1.00   0.00  0.00  0.00  0.99  0.01  0.00  0.00  1.00  0.00
  WS02003067WS02003066    1.00   0.05  0.01  0.00  0.95  0.00  0.00  0.00  0.00  0.00
  WS02001213WS02003059    1.00   0.00  0.00  0.00  0.99  0.00  0.00  0.00  0.00  0.00
  WS02001212WS02001213    1.00   0.00  0.00  0.00  0.92  0.00  0.07  0.00  0.00  0.00
  WS02001211WS02001212    1.00   0.00  0.00  0.00  1.00  0.00  0.00  0.00  0.00  0.00
  WS02003072WS02003073    1.00   0.00  0.00  0.00  0.00  0.00  0.00  1.00  0.00  0.00
  WS02003069WS02003072    1.00   0.00  0.00  0.00  0.99  0.01  0.00  0.00  0.19  0.00
  WS02003060WS02003069    1.00   0.00  0.00  0.00  0.98  0.02  0.00  0.00  0.09  0.00
  WS02003059WS02003060    1.00   0.00  0.00  0.00  1.00  0.00  0.00  0.00  0.01  0.00
  HS02004901HS02004770    1.00   0.04  0.00  0.00  0.96  0.00  0.00  0.00  0.00  0.00
  HS02004876HS02004881    1.00   0.02  0.00  0.00  0.84  0.14  0.00  0.00  0.00  0.00
  HS02004870HS02004876    1.00   0.01  0.00  0.00  0.99  0.00  0.00  0.00  0.95  0.00
  HS02004842HS02004848    1.00   0.00  0.04  0.00  0.96  0.00  0.00  0.00  0.57  0.00
  HS02004837HS02004842    1.00   0.00  0.00  0.00  0.99  0.01  0.00  0.00  0.11  0.00
  HS02004830HS02004837    1.00   0.00  0.00  0.00  1.00  0.00  0.00  0.00  0.99  0.00
  HS02004824HS02004830    1.00   0.00  0.00  0.00  1.00  0.00  0.00  0.00  0.03  0.00
  HS02004817HS02004824    1.00   0.00  0.00  0.00  1.00  0.00  0.00  0.00  0.94  0.00
  HS02004770HS02004777    1.00   0.00  0.04  0.00  0.96  0.00  0.00  0.00  0.03  0.00
  HS02004799HS02004480    1.00   0.00  0.02  0.00  0.96  0.00  0.02  0.00  0.00  0.00
  HS02004792HS02004799    1.00   0.00  0.00  0.00  0.99  0.01  0.00  0.00  0.98  0.00
  HS02004788HS02004792    1.00   0.00  0.00  0.00  0.99  0.01  0.00  0.00  0.98  0.00
  HS02004785HS02004788    1.00   0.00  0.00  0.00  1.00  0.00  0.00  0.00  0.00  0.00
  HS02004777HS02004785    1.00   0.00  0.00  0.00  1.00  0.00  0.00  0.00  0.13  0.00
  HS02004480HS02004478    1.00   0.04  0.00  0.00  0.65  0.00  0.00  0.31  0.00  0.00
  HS02004479HS02004480    1.00   0.02  0.00  0.00  0.98  0.00  0.00  0.00  0.12  0.00
  HS02004862HS02004870    1.00   0.00  0.00  0.00  1.00  0.00  0.00  0.00  0.04  0.00
  HS02004848HS02004852    1.00   0.04  0.00  0.00  0.96  0.00  0.00  0.00  0.78  0.00
  HS02004856HS02004862    1.00   0.00  0.05  0.00  0.95  0.00  0.00  0.00  0.82  0.00
  HS02004852HS02004856    1.00   0.04  0.00  0.00  0.96  0.00  0.00  0.00  0.77  0.00
  HS02004802HS02004478    1.00   0.04  0.00  0.00  0.96  0.00  0.00  0.00  0.03  0.00
  HS02004478WS02006287    1.00   0.04  0.00  0.00  0.71  0.25  0.00  0.00  0.62  0.00
  HS02004817HS02004807    1.00   0.00  0.04  0.00  0.96  0.00  0.00  0.00  0.01  0.00
  HS02004807HS02004802    1.00   0.04  0.00  0.00  0.96  0.00  0.00  0.00  0.00  0.00
  YS02001759YS02001757    1.00   0.00  0.00  0.00  1.00  0.00  0.00  0.00  0.16  0.00
  YS02001762YS02001759    1.00   0.00  0.00  0.00  1.00  0.00  0.00  0.00  0.03  0.00
  YS02001765YS02001762    1.00   0.00  0.00  0.00  1.00  0.00  0.00  0.00  0.14  0.00
  YS02001770YS02001767    1.00   0.00  0.00  0.00  1.00  0.00  0.00  0.00  0.00  0.00
  YS02001774YS02001770    1.00   0.00  0.04  0.00  0.96  0.00  0.00  0.00  0.03  0.00
  YS02001779YS02001774    1.00   0.00  0.00  0.00  1.00  0.00  0.00  0.00  0.18  0.00
  YS02001649YS02001757    1.00   0.00  0.00  0.00  1.00  0.00  0.00  0.00  0.16  0.00
  YS02001767YS02001765    1.00   0.00  0.00  0.00  1.00  0.00  0.00  0.00  0.00  0.00
  YS02006561YS02001783    1.00   0.05  0.00  0.00  0.44  0.51  0.00  0.00  0.49  0.00
  YS02001783YS02001784    1.00   0.00  0.05  0.00  0.95  0.00  0.00  0.00  0.00  0.00
  YS02001784YS02001785    1.00   0.00  0.00  0.00  1.00  0.00  0.00  0.00  0.17  0.00
  YS02001788YS02001790    1.00   0.00  0.00  0.00  0.49  0.51  0.00  0.00  0.43  0.00
  YS02001790YS02001791    1.00   0.00  0.00  0.00  0.46  0.54  0.00  0.00  0.40  0.00
  YS02001791YS02001793    1.00   0.00  0.00  0.00  0.47  0.53  0.00  0.00  0.03  0.00
  YS02001910YS02001907    1.00   0.00  0.00  0.00  0.98  0.00  0.00  0.02  0.12  0.00
  YS02001786YS02001788    1.00   0.00  0.00  0.00  0.50  0.50  0.00  0.00  0.00  0.00
  YS02001915YS02001910    1.00   0.00  0.00  0.00  0.99  0.01  0.00  0.00  0.16  0.00
  YS02001918YS02001915    1.00   0.00  0.01  0.00  0.98  0.01  0.00  0.00  0.52  0.00
  YS02001923YS02001920    1.00   0.00  0.00  0.00  1.00  0.00  0.00  0.00  0.74  0.00
  YS02001926YS02001923    1.00   0.00  0.03  0.00  0.27  0.00  0.70  0.00  0.00  0.00
  YS02001929YS02001926    1.00   0.00  0.04  0.00  0.96  0.00  0.00  0.00  0.66  0.00
  YS02001920YS02001918    1.00   0.00  0.01  0.00  0.99  0.00  0.00  0.00  0.00  0.00
  YS02001629YS02163301    1.00   0.04  0.00  0.00  0.96  0.00  0.00  0.00  0.00  0.00
  YS02001619YS02001622    1.00   0.04  0.00  0.00  0.96  0.00  0.00  0.00  0.00  0.00
  YS02001622YS02001625    1.00   0.04  0.00  0.00  0.96  0.00  0.00  0.00  0.05  0.00
  YS02001625YS02001629    1.00   0.04  0.01  0.00  0.94  0.00  0.01  0.00  0.00  0.00
  YS02163301YS02001633    1.00   0.00  0.04  0.00  0.96  0.00  0.00  0.00  0.00  0.00
  YS02163601YS02164001    1.00   0.00  0.03  0.00  0.97  0.00  0.00  0.00  0.00  0.00
  YS02164001YS02001641    1.00   0.01  0.02  0.00  0.97  0.00  0.00  0.00  0.06  0.00
  YS02001641YS02001644    1.00   0.00  0.01  0.00  0.99  0.00  0.00  0.00  0.00  0.00
  YS02001647YS02001649    1.00   0.00  0.05  0.00  0.95  0.00  0.00  0.00  0.01  0.00
  YS02006553YS02006556    1.00   0.01  0.00  0.00  0.99  0.00  0.00  0.00  0.03  0.00
  YS02006556YS02006558    1.00   0.00  0.00  0.00  1.00  0.00  0.00  0.00  0.00  0.00
  YSB6556YSB1171          1.00   0.02  0.01  0.00  0.96  0.00  0.00  0.00  0.00  0.00
  YS02001907YS02006553    1.00   0.00  0.02  0.00  0.98  0.00  0.00  0.00  0.00  0.00
  YS02006558YS02006561    1.00   0.05  0.00  0.00  0.29  0.67  0.00  0.00  0.42  0.00
  YS02001633YS02163601    1.00   0.00  0.01  0.00  0.99  0.00  0.00  0.00  0.15  0.00
  YS02001644YS02001647    1.00   0.00  0.05  0.00  0.95  0.00  0.00  0.00  0.00  0.00
  YS02001745YS02001748    1.00   0.00  0.00  0.00  0.92  0.00  0.00  0.07  0.01  0.00
  YS02001748YS02001751    1.00   0.00  0.00  0.00  0.98  0.02  0.00  0.00  0.14  0.00
  YS02001751YS02001754    1.00   0.00  0.00  0.00  0.95  0.00  0.00  0.05  0.01  0.00
  YS02001754YS02001757    1.00   0.00  0.00  0.00  0.99  0.01  0.00  0.00  0.18  0.00
  YS02001882YS02001884    1.00   0.04  0.00  0.00  0.96  0.00  0.00  0.00  0.00  0.00
  YS02001884YS02001887    1.00   0.03  0.01  0.00  0.96  0.00  0.00  0.00  0.00  0.00
  YS02001890YS02001895    1.00   0.00  0.04  0.00  0.96  0.00  0.00  0.00  0.00  0.00
  YS02001895YS02001898    1.00   0.04  0.00  0.00  0.95  0.00  0.00  0.00  0.00  0.00
  YS02001898YS02001901    1.00   0.04  0.00  0.00  0.96  0.00  0.00  0.00  0.01  0.00
  YS02001901YS02001904    1.00   0.04  0.00  0.00  0.96  0.00  0.00  0.00  0.00  0.00
  YS02001904YS02001907    1.00   0.00  0.04  0.00  0.96  0.00  0.00  0.00  0.00  0.00
  YS02001887YS02001890    1.00   0.00  0.00  0.00  0.98  0.00  0.02  0.00  0.00  0.00
  YS02001652YS02001649    1.00   0.00  0.00  0.00  1.00  0.00  0.00  0.00  0.16  0.00
  YS02001655YS02001652    1.00   0.00  0.00  0.00  0.95  0.00  0.00  0.05  0.01  0.00
  YS02001658YS02001655    1.00   0.00  0.04  0.00  0.94  0.02  0.00  0.00  0.02  0.00
  YS02001661YS02001658    1.00   0.04  0.00  0.00  0.92  0.04  0.00  0.00  0.00  0.00
  YS02001664YS02001661    1.00   0.04  0.00  0.00  0.93  0.03  0.00  0.00  0.10  0.00
  YSB1154YSB6556          1.00   0.04  0.00  0.00  0.96  0.00  0.00  0.00  0.02  0.00
  YSB1174YSB1171          1.00   0.03  0.01  0.00  0.97  0.00  0.00  0.00  0.00  0.00
  YSB1171HS02004479       1.00   0.02  0.00  0.00  0.97  0.00  0.00  0.00  0.11  0.00
  HS02004881HS02006253    1.00   0.03  0.00  0.00  0.85  0.02  0.00  0.10  0.74  0.00
  YS02001793JiankangQianchi    1.00   0.00  0.00  0.00  0.65  0.35  0.00  0.00  0.15  0.00
  YS02001757CaochengTiaoxuchi    1.00   0.00  0.06  0.00  0.89  0.06  0.00  0.00  0.00  0.00
  WSF200WS02003060        1.00   0.00  0.06  0.00  0.68  0.26  0.00  0.00  0.09  0.00
  1                       1.00   0.00  0.00  0.00  0.00  1.00  0.00  0.00  0.42  0.00
  2                       1.00   0.35  0.00  0.00  0.00  0.65  0.00  0.00  0.10  0.00
  3                       1.00   0.07  0.00  0.00  0.00  0.93  0.00  0.00  0.21  0.00
  4                       1.00   1.00  0.00  0.00  0.00  0.00  0.00  0.00  0.00  0.00
  
  
  *************************
  Conduit Surcharge Summary
  *************************
  
  ----------------------------------------------------------------------------
                                                           Hours        Hours 
                         --------- Hours Full --------   Above Full   Capacity
  Conduit                Both Ends  Upstream  Dnstream   Normal Flow   Limited
  ----------------------------------------------------------------------------
  WS02006229WS02006228        3.92      4.25      3.92      5.78         3.92
  WS02006256WS02006235        6.35      6.35      7.69      1.74         0.01
  WS02006253WS02006251        0.18      0.18      0.23      0.01         0.01
  WS02006252WS02006251        2.80      2.80      3.96      3.66         0.01
  WS02006251WS02006249        0.01      0.19      0.01      2.98         0.01
  WS02006249WS02006248        0.01      0.01      0.01      5.31         0.01
  WS02006248WS02006247        0.01      0.01      0.30      0.01         0.01
  WS02006247WS02006245        0.33      0.37      0.33      5.77         0.32
  WS02006245WS02006243        0.40      0.40      0.57      0.03         0.01
  WS02006243WS02006242        0.69      0.69      3.33      0.01         0.01
  WS02006242WS02006240        1.66      1.66      3.90      3.71         0.01
  WS02006240WS02006239        1.85      1.85      1.95      0.13         0.01
  WS02006239WS02006238        3.68      3.69      3.85      0.20         0.11
  WS02006238WS02006235        3.61      3.61      4.25      0.01         0.01
  WS02006235WS02006234        1.67      1.67      3.36      6.37         0.04
  WS02006234WS02006232        1.94      1.94      4.37      0.01         0.01
  WS02006232WS02006231        0.99      0.99      4.37      0.01         0.01
  WS02006231WS02006230        0.74      0.74      1.11      6.36         0.01
  WS02006230WS02006229        5.01      5.69      5.01      6.45         5.01
  WS02006228WS02006109        4.10      4.81      4.10      6.14         4.10
  WS02006116WS02004401        0.54      0.54      0.55      0.48         0.47
  WS02006115WS02006116        0.37      0.38      0.39      0.26         0.26
  WS02006112WS02006115        0.33      0.33      1.64      0.01         0.01
  WS02006111WS02006112        0.01      0.01      5.81      0.01         0.01
  WS02006110WS02006113        0.01      0.01      4.52      0.01         0.01
  WS02006109WS02006110        1.50      1.50      4.81      1.51         0.01
  WS02004411WS02004412        0.01      0.01      0.01      0.51         0.01
  WS02004401WS02004402        0.55      0.55      0.58      0.01         0.01
  WS02004410WS02004411        0.01      0.01      0.01      0.45         0.01
  WS02004409WS02004410        0.01      0.01      0.01      0.28         0.01
  WS02004406WS02004407        0.01      0.01      0.71      0.01         0.01
  WS02004405WS02004406        0.71      0.75      0.71      1.57         0.71
  WS02004404WS02004405        0.75      0.78      0.75      6.25         0.75
  WS02004403WS02004404        0.60      0.60      0.78      0.01         0.01
  WS02004402WS02004403        0.58      0.58      0.60      0.54         0.52
  WS02003072WS02003073        0.01      0.01      0.01      6.07         0.01
  HS02004876HS02004881        0.01      0.01      0.01      0.49         0.01
  HS02004785HS02004788        0.01      0.01      0.01      0.35         0.01
  HS02004480HS02004478        0.01      0.01      0.01      0.79         0.01
  YS02001759YS02001757        6.09      6.09      6.12      0.01         0.01
  YS02001762YS02001759        6.09      6.09      6.09      0.01         0.01
  YS02001765YS02001762        6.08      6.08      6.09      0.01         0.01
  YS02001770YS02001767        6.07      6.07      6.07      0.47         1.00
  YS02001774YS02001770        6.07      6.07      6.08      0.01         0.01
  YS02001779YS02001774        6.04      6.04      6.08      0.01         0.01
  YS02001649YS02001757        6.08      6.08      6.12      0.01         0.01
  YS02001767YS02001765        6.07      6.07      6.08      0.01         0.01
  YS02006561YS02001783        1.61      1.61      2.14      0.01         0.01
  YS02001783YS02001784        2.12      2.14      2.19      2.02         1.91
  YS02001784YS02001785        2.07      2.19      2.07      2.72         2.07
  YS02001788YS02001790        2.04      2.04      2.84      0.01         0.01
  YS02001790YS02001791        2.84      2.84      2.87      1.53         1.47
  YS02001791YS02001793        2.87      2.87      2.97      0.01         0.01
  YS02001910YS02001907        1.94      1.94      2.25      0.01         0.01
  YS02001786YS02001788        2.04      2.07      2.04      2.38         2.04
  YS02001915YS02001910        1.75      1.75      1.94      0.01         0.01
  YS02001918YS02001915        1.51      1.51      1.75      0.01         0.01
  YS02001923YS02001920        1.32      1.32      1.54      0.01         0.01
  YS02001926YS02001923        0.01      0.01      0.01      0.01         0.01
  YS02001929YS02001926        0.01      0.01      0.01      0.01         0.01
  YS02001920YS02001918        1.51      1.51      1.54      0.01         0.01
  YS02001629YS02163301        6.06      6.06      6.07      0.01         0.01
  YS02001619YS02001622        6.02      6.02      6.02      0.01         0.01
  YS02001622YS02001625        6.02      6.02      6.05      0.01         0.01
  YS02001625YS02001629        6.02      6.02      6.05      0.01         0.01
  YS02163301YS02001633        6.07      6.07      6.08      0.01         0.01
  YS02163601YS02164001        6.08      6.08      6.09      0.01         0.01
  YS02164001YS02001641        6.08      6.08      6.08      0.01         0.02
  YS02001641YS02001644        6.08      6.08      6.08      2.21         2.10
  YS02001647YS02001649        6.05      6.05      6.08      0.01         0.01
  YS02006553YS02006556        2.11      2.11      2.29      0.01         0.01
  YS02006556YS02006558        2.18      2.18      2.37      0.01         0.01
  YSB6556YSB1171              0.01      0.01      0.14      0.01         0.01
  YS02001907YS02006553        2.75      2.75      2.95      0.01         0.01
  YS02006558YS02006561        1.78      2.09      1.78      2.63         1.78
  YS02001633YS02163601        6.08      6.08      6.09      0.01         0.01
  YS02001644YS02001647        6.05      6.05      6.08      0.01         0.01
  YS02001745YS02001748        0.01      0.01      5.99      0.01         0.01
  YS02001748YS02001751        6.00      6.00      6.02      0.01         0.01
  YS02001751YS02001754        6.02      6.02      6.04      0.01         0.01
  YS02001754YS02001757        6.05      6.05      6.12      0.01         0.01
  YS02001882YS02001884        1.76      1.76      1.79      0.01         0.01
  YS02001884YS02001887        1.84      1.84      1.87      0.01         0.01
  YS02001890YS02001895        1.73      1.73      1.96      0.01         0.01
  YS02001895YS02001898        1.71      1.71      1.73      0.01         0.01
  YS02001898YS02001901        1.74      1.74      1.84      0.01         0.01
  YS02001901YS02001904        1.81      1.81      1.84      0.01         0.01
  YS02001904YS02001907        1.81      1.81      2.32      0.01         0.01
  YS02001887YS02001890        1.90      1.90      1.92      0.20         0.01
  YS02001652YS02001649        6.06      6.06      6.08      0.01         0.01
  YS02001655YS02001652        6.02      6.02      6.05      0.01         0.01
  YS02001658YS02001655        5.99      5.99      6.02      0.01         0.01
  YS02001661YS02001658        0.31      0.31      5.99      0.01         0.01
  YS02001664YS02001661        0.01      0.01      1.49      0.01         0.01
  YS02001793JiankangQianchi        2.93      2.93      4.00      0.01         0.01
  YS02001757CaochengTiaoxuchi        5.56      5.56      6.12      0.01         0.01
  
  
  ***************
  Pumping Summary
  ***************
  
  ---------------------------------------------------------------------------------------------------------
                                                  Min       Avg       Max     Total     Power    % Time Off
                        Percent   Number of      Flow      Flow      Flow    Volume     Usage    Pump Curve
  Pump                 Utilized   Start-Ups       LPS       LPS       LPS  10^6 ltr     Kw-hr    Low   High
  ---------------------------------------------------------------------------------------------------------
  CC-Pump-1               70.76           4      0.00    159.79    200.00     3.249      5.03    0.0    6.2
  CC-Pump-2               70.77           3      0.00    163.01    200.00     3.309      4.72    0.0    6.2
  JK-Pump-1               87.21           8      0.00    168.22    300.00     3.370     34.83    0.0    0.0
  JK-Pump-2               80.84           8      0.00    169.17    300.00     3.136     32.50    0.0    0.0
  XR-Pump-1               87.22           6      0.00     79.02     95.00     1.967     14.37    0.0    0.0
  XR-Pump-2               89.36           4      0.00     76.69     95.00     1.967     14.37    0.0    0.0
  XR-Pump-3               82.96           7      0.00     73.06     95.00     1.681     10.09    0.0    0.0
  XR-Pump-4               87.22           7      0.00     66.12     95.00     1.596     10.92    0.0    0.0
  

  Analysis begun on:  Wed Dec 22 17:21:44 2021
  Analysis ended on:  Wed Dec 22 17:21:50 2021
  Total elapsed time: 00:00:06