
  EPA STORM WATER MANAGEMENT MODEL - VERSION 5.1 (Build 5.3.0.dev0)
  --------------------------------------------------------------

  WARNING 04: minimum elevation drop used for Conduit WS02004404WS02004405
  WARNING 03: negative offset ignored for Link YS02001904YS02001907
  
  *********************************************************
  NOTE: The summary statistics displayed in this report are
  based on results found at every computational time step,  
  not just on results from each reporting time step.
  *********************************************************
  
  ****************
  Analysis Options
  ****************
  Flow Units ............... LPS
  Process Models:
    Rainfall/Runoff ........ YES
    RDII ................... NO
    Snowmelt ............... NO
    Groundwater ............ NO
    Flow Routing ........... YES
    Ponding Allowed ........ NO
    Water Quality .......... NO
  Infiltration Method ...... HORTON
  Flow Routing Method ...... DYNWAVE
  Surcharge Method ......... EXTRAN
  Starting Date ............ 08/28/2015 08:00:00
  Ending Date .............. 08/28/2015 15:50:00
  Antecedent Dry Days ...... 8.0
  Report Time Step ......... 00:01:00
  Wet Time Step ............ 00:01:00
  Dry Time Step ............ 00:01:00
  Routing Time Step ........ 5.00 sec
  Variable Time Step ....... YES
  Maximum Trials ........... 8
  Number of Threads ........ 4
  Head Tolerance ........... 0.001500 m
  
  
  **************************        Volume         Depth
  Runoff Quantity Continuity     hectare-m            mm
  **************************     ---------       -------
  Total Precipitation ......         3.868         8.469
  Evaporation Loss .........         0.000         0.000
  Infiltration Loss ........         0.985         2.157
  Surface Runoff ...........         1.916         4.194
  Final Storage ............         0.968         2.119
  Continuity Error (%) .....        -0.017
  
  
  **************************        Volume        Volume
  Flow Routing Continuity        hectare-m      10^6 ltr
  **************************     ---------     ---------
  Dry Weather Inflow .......         0.616         6.165
  Wet Weather Inflow .......         1.915        19.148
  Groundwater Inflow .......         0.000         0.000
  RDII Inflow ..............         0.000         0.000
  External Inflow ..........         0.102         1.024
  External Outflow .........         2.095        20.947
  Flooding Loss ............         0.151         1.506
  Evaporation Loss .........         0.000         0.000
  Exfiltration Loss ........         0.000         0.000
  Initial Stored Volume ....         0.076         0.761
  Final Stored Volume ......         0.549         5.489
  Continuity Error (%) .....        -3.117
  
  
  *************************
  Highest Continuity Errors
  *************************
  Node YS02001774 (42.74%)
  Node HS02004842 (20.90%)
  Node JK-storage (-14.88%)
  Node YS02001884 (14.43%)
  Node YSB1171 (4.66%)
  
  
  ***************************
  Time-Step Critical Elements
  ***************************
  Link WS02006252WS02006251 (47.88%)
  Link 3 (42.05%)
  Link WS02006238WS02006235 (3.11%)
  Link WS02006280WS02006229 (1.36%)
  Link 2 (1.33%)
  
  
  ********************************
  Highest Flow Instability Indexes
  ********************************
  Link WS02006113WS02006111 (32)
  Link WS02006252WS02006251 (31)
  Link WS02006111WS02006112 (27)
  Link YS02001779YS02001774 (26)
  Link YS02001774YS02001770 (24)
  
  
  *************************
  Routing Time Step Summary
  *************************
  Minimum Time Step           :     0.11 sec
  Average Time Step           :     0.78 sec
  Maximum Time Step           :     5.00 sec
  Percent in Steady State     :    -0.00
  Average Iterations per Step :     4.46
  Percent Not Converging      :    29.05
  
  
  ***************************
  Subcatchment Runoff Summary
  ***************************
  
  ------------------------------------------------------------------------------------------------------------------------------
                            Total      Total      Total      Total     Imperv       Perv      Total       Total     Peak  Runoff
                           Precip      Runon       Evap      Infil     Runoff     Runoff     Runoff      Runoff   Runoff   Coeff
  Subcatchment                 mm         mm         mm         mm         mm         mm         mm    10^6 ltr      LPS
  ------------------------------------------------------------------------------------------------------------------------------
  sub0                       8.47       0.00       0.00       0.59       6.61       0.00       6.61        0.01     1.03   0.781
  sub1                       8.47       0.00       0.00       0.93       6.28       0.00       6.28        0.04     7.43   0.741
  sub2                       8.47       0.00       0.00       3.13       4.43       0.00       4.43        0.04     7.08   0.523
  sub3                       8.47       0.00       0.00       3.13       4.39       0.00       4.39        0.10    15.91   0.518
  sub4                       8.47       0.00       0.00       0.93       6.13       0.00       6.13        0.13    19.23   0.724
  sub5                       8.47       0.00       0.00       0.59       6.56       0.00       6.56        0.07    13.22   0.775
  sub7                       8.47       0.00       0.00       0.76       6.45       0.00       6.45        0.02     4.04   0.762
  sub8                       8.47       0.00       0.00       0.76       6.44       0.00       6.44        0.04     7.54   0.761
  sub9                       8.47       0.00       0.00       0.76       6.44       0.00       6.44        0.03     5.65   0.760
  sub10                      8.47       0.00       0.00       0.68       6.50       0.00       6.50        0.07    12.87   0.767
  sub11                      8.47       0.00       0.00       0.68       6.52       0.00       6.52        0.08    13.93   0.769
  sub12                      8.47       0.00       0.00       1.10       6.18       0.00       6.18        0.05    10.23   0.730
  sub14                      8.47       0.00       0.00       0.76       6.44       0.00       6.44        0.06    11.15   0.760
  sub15                      8.47       0.00       0.00       2.54       4.95       0.00       4.95        0.09    15.40   0.584
  sub16                      8.47       0.00       0.00       2.79       4.76       0.00       4.76        0.05     9.37   0.561
  sub17                      8.47       0.00       0.00       2.71       4.82       0.00       4.82        0.04     7.75   0.570
  sub22                      8.47       0.00       0.00       3.64       4.04       0.00       4.04        0.26    47.08   0.477
  sub23                      8.47       0.00       0.00       3.13       4.46       0.00       4.46        0.21    39.46   0.527
  sub60                      8.47       0.00       0.00       1.02       4.75       0.00       4.75        1.44   149.28   0.561
  sub61                      8.47       0.00       0.00       1.44       4.95       0.00       4.95        1.53   180.35   0.585
  sub62                      8.47       0.00       0.00       0.68       5.35       0.00       5.35        1.64   187.08   0.631
  sub63                      8.47       0.00       0.00       2.46       4.37       0.00       4.37        1.32   164.01   0.516
  sub64                      8.47       0.00       0.00       1.27       4.55       0.00       4.55        1.38   141.99   0.537
  sub65                      8.47       0.00       0.00       1.10       4.62       0.00       4.62        1.42   144.28   0.545
  sub66                      8.47       0.00       0.00       2.46       3.94       0.00       3.94        1.21   129.20   0.465
  sub67                      8.47       0.00       0.00       0.68       5.75       0.00       5.75        1.78   226.25   0.679
  sub68                      8.47       0.00       0.00       1.19       5.24       0.00       5.24        1.61   196.27   0.618
  sub69                      8.47       0.00       0.00       1.27       5.53       0.00       5.53        1.29   176.57   0.653
  sub70                      8.47       5.64       0.00       4.80       7.11       0.00       7.11        1.63   167.69   0.504
  sub71                      8.47       0.00       0.00       0.68       5.16       0.00       5.16        1.22   132.38   0.610
  sub72                      8.47       0.00       0.00       0.59       3.87       0.00       3.87        0.79    64.98   0.457
  sub73                      8.47       6.92       0.00       5.23       7.51       0.00       7.51        1.76   149.38   0.488
  sub74                      8.47       0.00       0.00       6.35       1.66       0.00       1.66        0.66    93.55   0.196
  
  
  ******************
  Node Depth Summary
  ******************
  
  ---------------------------------------------------------------------------------
                                 Average  Maximum  Maximum  Time of Max    Reported
                                   Depth    Depth      HGL   Occurrence   Max Depth
  Node                 Type       Meters   Meters   Meters  days hr:min      Meters
  ---------------------------------------------------------------------------------
  WS02001211           JUNCTION     0.67     0.77     5.61     0  04:10        0.77
  WS02001212           JUNCTION     0.39     0.48     5.55     0  04:11        0.48
  WS02001213           JUNCTION     0.63     0.73     5.49     0  04:11        0.72
  WS02003069           JUNCTION     0.46     0.56     5.14     0  02:31        0.56
  WS02003072           JUNCTION     0.53     0.62     4.99     0  02:32        0.62
  WS02003073           JUNCTION     0.32     0.38     4.44     0  02:33        0.38
  WS02003060           JUNCTION     0.41     0.49     5.42     0  02:31        0.49
  WS02003066           JUNCTION     0.25     0.30     5.86     0  02:29        0.30
  WS02003059           JUNCTION     0.69     0.78     5.46     0  04:12        0.78
  WS02003067           JUNCTION     0.61     0.71     6.03     0  02:29        0.71
  WS02004401           JUNCTION     0.72     0.87     6.87     0  02:26        0.87
  WS02004402           JUNCTION     0.75     0.89     6.85     0  02:26        0.89
  WS02004403           JUNCTION     0.77     0.91     6.84     0  02:27        0.91
  WS02004404           JUNCTION     0.84     0.98     6.83     0  02:27        0.98
  WS02004406           JUNCTION     0.84     0.97     6.80     0  02:27        0.97
  WS02004409           JUNCTION     0.54     0.68     6.45     0  02:28        0.68
  WS02004410           JUNCTION     0.56     0.70     6.42     0  02:29        0.70
  WS02004411           JUNCTION     0.57     0.70     6.38     0  02:29        0.70
  WS02004412           JUNCTION     0.58     0.71     6.35     0  02:29        0.71
  WS02004413           JUNCTION     0.74     0.87     6.34     0  02:29        0.87
  WS02004405           JUNCTION     0.84     0.97     6.82     0  02:27        0.97
  WS02006109           JUNCTION     0.80     0.99     7.61     0  02:21        0.99
  WS02006110           JUNCTION     0.79     0.93     7.52     0  02:21        0.93
  WS02006111           JUNCTION     0.24     0.29     7.00     0  02:22        0.29
  WS02006112           JUNCTION     0.89     1.08     6.96     0  02:21        1.07
  WS02006113           JUNCTION     0.37     0.46     7.36     0  02:23        0.46
  WS02006115           JUNCTION     0.61     0.77     6.91     0  02:26        0.77
  WS02006116           JUNCTION     0.69     0.85     6.89     0  02:26        0.85
  WS02006230           JUNCTION     0.80     1.04     7.79     0  02:21        1.04
  WS02006231           JUNCTION     0.54     0.72     7.84     0  02:21        0.71
  WS02006232           JUNCTION     0.68     0.85     7.89     0  02:21        0.85
  WS02006234           JUNCTION     0.61     0.79     7.95     0  02:20        0.79
  WS02006235           JUNCTION     0.64     0.82     7.99     0  02:20        0.82
  WS02006238           JUNCTION     0.67     0.85     7.99     0  02:20        0.85
  WS02006240           JUNCTION     0.58     0.77     8.06     0  02:20        0.77
  WS02006242           JUNCTION     0.64     0.83     8.10     0  02:20        0.83
  WS02006243           JUNCTION     0.53     0.72     8.14     0  02:20        0.72
  WS02006245           JUNCTION     0.51     0.68     8.17     0  02:20        0.68
  WS02006247           JUNCTION     0.52     0.69     8.19     0  02:20        0.69
  WS02006248           JUNCTION     0.46     0.62     8.21     0  02:20        0.62
  WS02006249           JUNCTION     0.49     0.63     8.23     0  02:20        0.63
  WS02006239           JUNCTION     0.64     0.82     8.03     0  02:20        0.82
  WS02006251           JUNCTION     0.49     0.66     8.33     0  02:20        0.66
  WS02006252           JUNCTION     0.44     0.59     8.84     0  04:29        0.59
  WS02006253           JUNCTION     0.51     0.69     8.33     0  02:20        0.68
  WS02006256           JUNCTION     1.06     1.21     8.15     0  02:20        1.21
  WS02004138           JUNCTION     0.15     0.19     7.44     0  01:00        0.19
  WS02004407           JUNCTION     0.24     0.30     6.62     0  02:27        0.30
  WS02006228           JUNCTION     0.81     1.03     7.68     0  02:21        1.03
  WS02006229           JUNCTION     0.79     1.03     7.73     0  02:21        1.03
  WS02006280           JUNCTION     0.06     0.14     8.41     0  02:27        0.14
  WS02006284           JUNCTION     0.36     0.48     8.88     0  02:27        0.48
  WS02006287           JUNCTION     0.09     0.21     9.16     0  02:27        0.21
  WSF200               JUNCTION     0.24     0.32     5.55     0  02:29        0.32
  HS02004901           JUNCTION     0.12     0.22    10.04     0  02:25        0.22
  HS02004881           JUNCTION     0.01     0.02     9.05     0  02:26        0.02
  HS02004876           JUNCTION     0.04     0.10     9.13     0  02:25        0.10
  HS02004870           JUNCTION     0.01     0.04     9.33     0  02:26        0.04
  HS02004862           JUNCTION     0.02     0.05     9.43     0  02:27        0.05
  HS02004856           JUNCTION     0.08     0.11     9.53     0  02:26        0.11
  HS02004852           JUNCTION     0.01     0.03     9.54     0  02:27        0.03
  HS02004848           JUNCTION     0.01     0.03     9.63     0  02:26        0.03
  HS02004842           JUNCTION     0.33     0.36     9.63     0  02:26        0.36
  HS02004837           JUNCTION     0.03     0.05     9.63     0  02:26        0.05
  HS02004830           JUNCTION     0.04     0.06     9.53     0  02:26        0.06
  HS02004824           JUNCTION     0.02     0.04     9.45     0  02:27        0.04
  HS02004817           JUNCTION     0.43     0.53     9.37     0  02:27        0.53
  HS02004807           JUNCTION     0.12     0.20     9.37     0  02:27        0.20
  HS02004802           JUNCTION     0.16     0.24     9.37     0  02:27        0.24
  HS02004799           JUNCTION     0.11     0.25     9.46     0  02:25        0.25
  HS02004792           JUNCTION     0.03     0.09     9.62     0  02:25        0.09
  HS02004788           JUNCTION     0.02     0.07     9.97     0  02:26        0.07
  HS02004785           JUNCTION     0.04     0.13    10.03     0  02:25        0.13
  HS02004777           JUNCTION     0.14     0.24    10.04     0  02:25        0.24
  HS02004770           JUNCTION     0.11     0.21    10.04     0  02:25        0.21
  HS02004480           JUNCTION     0.08     0.19     9.43     0  02:26        0.19
  HS02004479           JUNCTION     0.11     0.23     9.43     0  02:25        0.23
  HS02004478           JUNCTION     0.06     0.12     9.35     0  02:26        0.12
  YS02001745           JUNCTION     0.52     0.82     8.34     0  05:14        0.82
  YS02001748           JUNCTION     0.90     1.26     8.34     0  05:12        1.26
  YS02001751           JUNCTION     1.08     1.95     8.83     0  03:04        1.46
  YS02001754           JUNCTION     1.34     1.85     8.46     0  02:59        1.73
  YS02001762           JUNCTION     1.54     1.96     8.36     0  05:12        1.95
  YS02001765           JUNCTION     1.49     1.92     8.37     0  05:12        1.90
  YS02001767           JUNCTION     1.45     1.88     8.37     0  05:16        1.87
  YS02001770           JUNCTION     1.45     1.88     8.37     0  02:58        1.87
  YS02001774           JUNCTION     1.52     1.96     8.39     0  02:58        1.94
  YS02001779           JUNCTION     1.27     1.68     8.37     0  02:58        1.67
  YS02001882           JUNCTION     0.36     0.64     7.35     0  03:02        0.63
  YS02001884           JUNCTION     0.45     0.73     7.35     0  03:02        0.73
  YS02001759           JUNCTION     1.57     2.00     8.36     0  05:15        1.99
  YS02001887           JUNCTION     0.53     0.81     7.35     0  03:01        0.81
  YS02001890           JUNCTION     0.56     0.84     7.34     0  03:02        0.84
  YS02001898           JUNCTION     0.33     0.60     7.33     0  03:03        0.59
  YS02001901           JUNCTION     0.45     0.72     7.33     0  03:03        0.72
  YS02001904           JUNCTION     0.43     0.70     7.33     0  03:02        0.69
  YS02001907           JUNCTION     0.76     1.06     7.35     0  02:54        1.05
  YS02001910           JUNCTION     0.55     0.82     7.33     0  03:02        0.82
  YS02001915           JUNCTION     0.34     0.61     7.32     0  03:02        0.61
  YS02001918           JUNCTION     0.11     0.26     7.32     0  03:01        0.26
  YS02001619           JUNCTION     1.05     1.61     8.54     0  03:26        1.49
  YS02001629           JUNCTION     1.40     1.85     8.40     0  03:30        1.85
  YS02001641           JUNCTION     1.51     1.95     8.39     0  03:40        1.92
  YS02001644           JUNCTION     1.51     1.92     8.35     0  03:40        1.92
  YS02001652           JUNCTION     1.35     2.16     8.76     0  02:55        1.78
  YS02001655           JUNCTION     1.11     2.20     9.05     0  02:56        1.54
  YS02001920           JUNCTION     0.21     0.33     7.34     0  03:02        0.33
  YS02001923           JUNCTION     0.08     0.12     7.38     0  03:02        0.12
  YS02001926           JUNCTION     0.17     0.23     7.67     0  03:02        0.23
  YS02001929           JUNCTION     0.09     0.12     7.81     0  03:01        0.12
  YS02001658           JUNCTION     0.85     2.30     9.44     0  03:22        1.27
  YS02001661           JUNCTION     0.63     1.02     8.42     0  05:12        1.02
  YS02001664           JUNCTION     0.22     0.51     8.43     0  04:33        0.50
  YS02001622           JUNCTION     1.07     1.57     8.48     0  03:30        1.50
  YS02001633           JUNCTION     1.50     1.99     8.44     0  03:36        1.93
  YS02001649           JUNCTION     1.55     2.05     8.44     0  03:23        1.97
  YS02001757           JUNCTION     1.67     2.10     8.36     0  05:15        2.09
  YS02001895           JUNCTION     0.32     0.59     7.34     0  03:01        0.59
  YS02001625           JUNCTION     1.36     1.78     8.38     0  03:30        1.78
  YS02163301           JUNCTION     1.43     1.92     8.43     0  03:36        1.87
  YS02163601           JUNCTION     1.55     2.03     8.43     0  03:40        1.98
  YS02164001           JUNCTION     1.49     1.96     8.42     0  03:40        1.91
  YS02001647           JUNCTION     1.34     1.78     8.39     0  03:25        1.75
  YSB1154              JUNCTION     0.25     0.38     9.43     0  02:26        0.38
  YSB6556              JUNCTION     0.15     0.26     9.43     0  02:26        0.26
  YSB1174              JUNCTION     0.20     0.32     9.43     0  02:26        0.32
  YSB1171              JUNCTION     0.40     0.53     9.43     0  02:25        0.53
  YS02006553           JUNCTION     0.76     1.07     7.35     0  03:03        1.04
  YS02006561           JUNCTION     0.18     0.43     7.09     0  02:57        0.39
  YS02006556           JUNCTION     0.73     1.03     7.34     0  03:03        1.00
  YS02006558           JUNCTION     0.78     1.07     7.34     0  03:03        1.04
  YS02001783           JUNCTION     0.33     1.46     7.60     0  02:56        1.32
  YS02001784           JUNCTION     0.36     1.43     7.50     0  02:57        1.42
  YS02001786           JUNCTION     0.32     1.77     7.80     0  02:56        1.46
  YS02001788           JUNCTION     0.25     1.67     7.65     0  02:56        1.39
  YS02001790           JUNCTION     0.31     1.96     7.60     0  02:55        1.50
  YS02001791           JUNCTION     0.25     1.74     7.21     0  02:55        1.59
  YS02001793           JUNCTION     0.27     2.54     7.37     0  02:52        1.90
  WS02004139           JUNCTION     0.61     0.72     5.63     0  04:10        0.71
  WSC                  OUTFALL      0.32     0.38     1.05     0  02:33        0.38
  3                    OUTFALL      0.10     0.21     6.21     0  02:20        0.21
  4                    OUTFALL      0.04     0.13     7.13     0  02:20        0.13
  5                    OUTFALL      0.00     0.00     5.00     0  00:00        0.00
  JK-storage           STORAGE      1.47     5.80     6.60     0  02:56        5.80
  CC-storage           STORAGE      0.89     1.32     8.32     0  05:15        1.32
  XR-storage           STORAGE      6.65     7.72     5.72     0  03:16        7.72
  
  
  *******************
  Node Inflow Summary
  *******************
  
  -------------------------------------------------------------------------------------------------
                                  Maximum  Maximum                  Lateral       Total        Flow
                                  Lateral    Total  Time of Max      Inflow      Inflow     Balance
                                   Inflow   Inflow   Occurrence      Volume      Volume       Error
  Node                 Type           LPS      LPS  days hr:min    10^6 ltr    10^6 ltr     Percent
  -------------------------------------------------------------------------------------------------
  WS02001211           JUNCTION      7.35   387.66     0  01:10       0.207        7.07       0.182
  WS02001212           JUNCTION      0.00   387.64     0  01:10           0        7.05       0.125
  WS02001213           JUNCTION      0.00   387.63     0  01:10           0        7.04       0.210
  WS02003069           JUNCTION      0.32   866.11     0  02:31     0.00902        16.2       0.125
  WS02003072           JUNCTION      0.00   866.03     0  02:32           0        16.2       0.167
  WS02003073           JUNCTION      1.82   867.80     0  02:32      0.0514        16.2       0.182
  WS02003060           JUNCTION     16.53   865.88     0  02:31       0.466        16.2       0.119
  WS02003066           JUNCTION      0.00   559.17     0  02:29           0        8.72       0.051
  WS02003059           JUNCTION      0.00   387.61     0  01:10           0        7.03       0.381
  WS02003067           JUNCTION      0.00   559.14     0  02:29           0        8.73       0.108
  WS02004401           JUNCTION      0.00   560.52     0  02:26           0        8.96       0.240
  WS02004402           JUNCTION      0.00   560.37     0  02:26           0        8.94       0.226
  WS02004403           JUNCTION      0.00   560.27     0  02:26           0        8.92       0.206
  WS02004404           JUNCTION      0.16   560.36     0  02:27     0.00457        8.91       0.155
  WS02004406           JUNCTION      0.00   560.33     0  02:27           0        8.88       0.378
  WS02004409           JUNCTION      0.00   560.10     0  02:27           0        8.84       0.187
  WS02004410           JUNCTION      0.00   559.76     0  02:27           0        8.82       0.211
  WS02004411           JUNCTION      0.00   559.41     0  02:28           0         8.8       0.217
  WS02004412           JUNCTION      0.00   559.30     0  02:28           0        8.78       0.234
  WS02004413           JUNCTION      0.00   559.21     0  02:28           0        8.76       0.346
  WS02004405           JUNCTION      0.04   560.29     0  02:27     0.00107         8.9       0.231
  WS02006109           JUNCTION      1.23   554.02     0  02:22      0.0347        9.05       0.241
  WS02006110           JUNCTION      0.00   554.03     0  02:22           0        9.03       0.218
  WS02006111           JUNCTION      0.00   576.96     0  02:23           0           9       0.049
  WS02006112           JUNCTION      7.75   566.98     0  02:22      0.0414        9.03       0.325
  WS02006113           JUNCTION      0.00   554.55     0  02:22           0        9.01       0.108
  WS02006115           JUNCTION      0.00   572.07     0  02:21           0           9       0.224
  WS02006116           JUNCTION      0.00   561.77     0  02:22           0        8.98       0.212
  WS02006230           JUNCTION     10.28   402.32     0  04:40        0.29        7.74       0.161
  WS02006231           JUNCTION      0.00   392.31     0  06:11           0        7.46       0.160
  WS02006232           JUNCTION      0.00   392.38     0  06:11           0        7.48       0.215
  WS02006234           JUNCTION      0.00   394.10     0  06:11           0        7.49       0.105
  WS02006235           JUNCTION      0.00   395.12     0  06:11           0        7.53       0.140
  WS02006238           JUNCTION      0.00   339.04     0  05:41           0        5.74       0.136
  WS02006240           JUNCTION      0.00   337.88     0  05:43           0        5.73       0.202
  WS02006242           JUNCTION      0.00   337.53     0  05:43           0        5.73       0.245
  WS02006243           JUNCTION      0.00   336.97     0  03:10           0        5.73       0.120
  WS02006245           JUNCTION      0.00   339.32     0  03:10           0        5.73       0.142
  WS02006247           JUNCTION      0.00   341.74     0  03:10           0        5.74       0.118
  WS02006248           JUNCTION      0.00   344.09     0  03:10           0        5.74       0.078
  WS02006249           JUNCTION      0.00   433.70     0  02:20           0        6.61       0.146
  WS02006239           JUNCTION      0.00   339.56     0  05:41           0        5.73       0.200
  WS02006251           JUNCTION      0.08   434.35     0  02:20     0.00217        6.63       0.135
  WS02006252           JUNCTION      0.00   400.00     0  03:10           0        6.39       0.007
  WS02006253           JUNCTION      1.03    41.74     0  02:26     0.00535        0.25       1.542
  WS02006256           JUNCTION      0.00   600.00     0  03:20           0        5.77       0.050
  WS02004138           JUNCTION      0.00   380.00     0  01:00           0        6.87       0.028
  WS02004407           JUNCTION      0.00   560.16     0  02:27           0        8.84       0.084
  WS02006228           JUNCTION      0.00   552.79     0  02:22           0        9.03       0.170
  WS02006229           JUNCTION      0.00   552.69     0  02:22           0        9.04       0.130
  WS02006280           JUNCTION      0.00   204.81     0  02:27           0        1.31       0.005
  WS02006284           JUNCTION      0.10   204.80     0  02:27      0.0027        1.31       0.087
  WS02006287           JUNCTION      0.00   204.70     0  02:27           0        1.31       0.053
  WSF200               JUNCTION      0.00   559.19     0  02:29           0        8.72       0.050
  HS02004901           JUNCTION      9.37     9.37     0  02:23      0.0498      0.0501       3.647
  HS02004881           JUNCTION      4.04    40.76     0  02:26      0.0217        0.23       0.122
  HS02004876           JUNCTION      7.43    36.75     0  02:26      0.0417       0.209       0.259
  HS02004870           JUNCTION      7.54    29.42     0  02:26      0.0411       0.167       0.066
  HS02004862           JUNCTION      7.28    22.06     0  02:26      0.0469       0.126       0.136
  HS02004856           JUNCTION      5.65    14.84     0  02:26       0.031      0.0805       1.827
  HS02004852           JUNCTION      0.00     9.33     0  02:26           0      0.0496       0.109
  HS02004848           JUNCTION     15.91    15.91     0  02:26      0.0988      0.0988       0.048
  HS02004842           JUNCTION      0.00     6.79     0  02:51           0      0.0622      26.415
  HS02004837           JUNCTION     19.22    25.66     0  02:25       0.251         0.3       0.272
  HS02004830           JUNCTION      0.15    25.80     0  02:26     0.00423        0.29       0.427
  HS02004824           JUNCTION     19.28    44.91     0  02:27       0.129       0.418       0.129
  HS02004817           JUNCTION      0.60    45.51     0  02:27      0.0169       0.435       3.988
  HS02004807           JUNCTION     13.93    58.94     0  02:27      0.0757       0.494       0.884
  HS02004802           JUNCTION      0.00    59.00     0  02:28           0       0.491       0.817
  HS02004799           JUNCTION     11.15   123.20     0  02:25      0.0613       0.713       0.360
  HS02004792           JUNCTION     47.36   112.13     0  02:24       0.263       0.652       0.064
  HS02004788           JUNCTION     17.07    65.26     0  02:25       0.132        0.39       0.101
  HS02004785           JUNCTION      0.15    48.39     0  02:25     0.00423       0.259       0.188
  HS02004777           JUNCTION      0.03    48.40     0  02:24    0.000846        0.26       2.037
  HS02004770           JUNCTION     39.46    48.64     0  02:23       0.213       0.261       1.203
  HS02004480           JUNCTION      0.00   146.07     0  02:25           0       0.837       0.127
  HS02004479           JUNCTION      0.00    23.09     0  02:27           0       0.137       0.537
  HS02004478           JUNCTION      0.00   204.69     0  02:26           0        1.31       0.032
  YS02001745           JUNCTION    149.28   265.47     0  03:32        1.44        1.46       0.472
  YS02001748           JUNCTION      0.04   365.89     0  03:32     0.00127        1.46       1.417
  YS02001751           JUNCTION      0.01   341.59     0  02:59     0.00031        1.42       1.659
  YS02001754           JUNCTION      0.26   204.89     0  02:55     0.00733         1.4       1.790
  YS02001762           JUNCTION      0.00   213.46     0  02:59           0        1.57       1.356
  YS02001765           JUNCTION      0.00   209.70     0  02:59           0        1.57       1.577
  YS02001767           JUNCTION      0.54   206.54     0  02:59      0.0151        1.59       2.306
  YS02001770           JUNCTION    187.24   202.40     0  02:59        1.65        1.66       1.957
  YS02001774           JUNCTION      0.00    32.81     0  01:57           0      0.0589      74.629
  YS02001779           JUNCTION      0.01    22.57     0  02:51    0.000141      0.0234     185.605
  YS02001882           JUNCTION      0.00    12.61     0  03:00           0      0.0113      20.901
  YS02001884           JUNCTION      0.00    21.18     0  03:00           0      0.0378      16.863
  YS02001759           JUNCTION    180.39   395.00     0  02:59        1.53        3.06       0.750
  YS02001887           JUNCTION    226.70   233.73     0  02:59        1.79        1.81       0.433
  YS02001890           JUNCTION      0.00   235.97     0  02:56           0        1.77       0.481
  YS02001898           JUNCTION      0.00   238.89     0  02:57           0        1.76       0.154
  YS02001901           JUNCTION      0.00   240.66     0  02:56           0        1.76       0.353
  YS02001904           JUNCTION      0.00   236.42     0  02:58           0        1.75       0.325
  YS02001907           JUNCTION      0.00   458.65     0  03:03           0        3.82       0.594
  YS02001910           JUNCTION      0.00   211.01     0  02:57           0        2.08       0.527
  YS02001915           JUNCTION    132.40   214.02     0  03:02        1.22        2.08       0.254
  YS02001918           JUNCTION      0.00    76.28     0  03:02           0       0.866       0.176
  YS02001619           JUNCTION    129.20   129.20     0  03:01        1.21        1.21       0.976
  YS02001629           JUNCTION      0.00   218.92     0  02:54           0        1.13       2.498
  YS02001641           JUNCTION      0.00   301.04     0  03:02           0        2.45       0.868
  YS02001644           JUNCTION    142.03   441.30     0  03:01        1.38         3.8       0.691
  YS02001652           JUNCTION      0.00   219.80     0  02:59           0        1.28       1.933
  YS02001655           JUNCTION      0.15   397.48     0  02:56     0.00434         1.3       1.698
  YS02001920           JUNCTION      2.87    67.64     0  03:02      0.0809       0.868       0.287
  YS02001923           JUNCTION      0.04    64.78     0  03:02     0.00106       0.788       0.052
  YS02001926           JUNCTION      0.05    64.97     0  03:01     0.00147       0.789       0.356
  YS02001929           JUNCTION     64.98    64.98     0  03:01       0.788       0.788       0.051
  YS02001658           JUNCTION      0.00   526.65     0  03:20           0        1.44       0.976
  YS02001661           JUNCTION      0.00   430.57     0  03:19           0        1.91       0.407
  YS02001664           JUNCTION    164.01   341.40     0  04:33        1.32        1.79       0.148
  YS02001622           JUNCTION      0.00   167.87     0  02:56           0         1.2       2.675
  YS02001633           JUNCTION    144.48   302.06     0  03:02        1.43         2.5       1.304
  YS02001649           JUNCTION      0.00   616.59     0  02:59           0        4.99       0.753
  YS02001757           JUNCTION      0.00  1094.69     0  03:02           0        9.33       0.995
  YS02001895           JUNCTION      0.00   232.60     0  02:56           0        1.76       0.240
  YS02001625           JUNCTION      0.00   219.22     0  02:54           0        1.16       3.449
  YS02163301           JUNCTION      0.00   159.42     0  03:02           0         1.1       2.222
  YS02163601           JUNCTION      0.11   302.23     0  03:02      0.0031        2.47       1.233
  YS02164001           JUNCTION      0.00   301.91     0  03:02           0        2.45       0.823
  YS02001647           JUNCTION      0.00   441.49     0  03:01           0        3.76       0.755
  YSB1154              JUNCTION     13.22    13.22     0  02:24      0.0743      0.0752       1.964
  YSB6556              JUNCTION      0.00    13.14     0  02:25           0      0.0759       1.671
  YSB1174              JUNCTION     10.23    10.23     0  02:22       0.054      0.0546       2.414
  YSB1171              JUNCTION      0.00    23.08     0  02:25           0       0.136       4.884
  YS02006553           JUNCTION      0.00   450.71     0  03:03           0        3.81       0.379
  YS02006561           JUNCTION      0.00   694.47     0  03:03           0        5.39       0.001
  YS02006556           JUNCTION      0.00   445.25     0  03:03           0        3.81       0.283
  YS02006558           JUNCTION    197.15   663.89     0  03:03        1.63        5.42       0.101
  YS02001783           JUNCTION      0.00   660.62     0  02:56           0        5.39       0.031
  YS02001784           JUNCTION      1.06   661.48     0  02:58      0.0299        5.42       0.057
  YS02001786           JUNCTION      0.06   661.61     0  02:58     0.00159        5.42       0.049
  YS02001788           JUNCTION      0.07   660.68     0  02:58       0.002        5.42       0.031
  YS02001790           JUNCTION      0.15   660.84     0  02:57     0.00437        5.42       0.039
  YS02001791           JUNCTION      0.00   660.93     0  02:57           0        5.42       0.021
  YS02001793           JUNCTION      0.00   736.64     0  02:53           0        5.42      -0.018
  WS02004139           JUNCTION      0.32   380.36     0  01:00     0.00905        6.88       0.261
  WSC                  OUTFALL       0.00   867.74     0  02:33           0        16.1       0.000
  3                    OUTFALL       0.00   519.84     0  02:20           0        3.95       0.000
  4                    OUTFALL       0.00   162.95     0  02:20           0       0.856       0.000
  5                    OUTFALL       0.00     0.00     0  00:00           0           0       0.000 ltr
  JK-storage           STORAGE       0.00   961.57     0  02:52           0        5.57     -12.956
  CC-storage           STORAGE       0.00  1095.40     0  03:02           0        9.24       0.594
  XR-storage           STORAGE     442.93   442.93     0  03:01        8.07        8.67      -0.000
  
  
  **********************
  Node Surcharge Summary
  **********************
  
  Surcharging occurs when water rises above the top of the highest conduit.
  ---------------------------------------------------------------------
                                               Max. Height   Min. Depth
                                   Hours       Above Crown    Below Rim
  Node                 Type      Surcharged         Meters       Meters
  ---------------------------------------------------------------------
  WS02006109           JUNCTION        3.54          0.168        1.652
  WS02006110           JUNCTION        0.40          0.024        1.826
  WS02006112           JUNCTION        0.79          0.081        1.599
  WS02006231           JUNCTION        0.07          0.005        1.525
  WS02006232           JUNCTION        3.62          0.149        1.331
  WS02006234           JUNCTION        0.47          0.069        1.171
  WS02006235           JUNCTION        2.48          0.112        1.178
  WS02006238           JUNCTION        3.13          0.129        1.301
  WS02006240           JUNCTION        0.39          0.056        1.334
  WS02006242           JUNCTION        2.32          0.098        0.722
  WS02006243           JUNCTION        0.04          0.007        0.763
  WS02006239           JUNCTION        1.25          0.078        1.212
  WS02006252           JUNCTION        3.71          0.193        0.907
  WS02006228           JUNCTION        3.42          0.201        1.999
  YS02001748           JUNCTION        2.99          0.181        1.009
  YS02001751           JUNCTION        4.66          0.951        0.249
  YS02001754           JUNCTION        5.14          0.802        0.348
  YS02001762           JUNCTION        5.50          0.961        0.189
  YS02001765           JUNCTION        5.46          0.915        0.185
  YS02001767           JUNCTION        5.42          0.878        0.152
  YS02001770           JUNCTION        5.38          0.846        0.074
  YS02001774           JUNCTION        5.49          0.964        0.086
  YS02001779           JUNCTION        5.11          0.680        0.000
  YS02001759           JUNCTION        5.53          0.997        0.213
  YS02001907           JUNCTION        0.29          0.047        0.903
  YS02001619           JUNCTION        4.59          0.610        0.000
  YS02001629           JUNCTION        4.61          0.470        0.000
  YS02001641           JUNCTION        5.48          0.954        0.146
  YS02001644           JUNCTION        5.48          0.920        0.000
  YS02001652           JUNCTION        5.21          1.130        0.000
  YS02001655           JUNCTION        4.68          1.200        0.000
  YS02001658           JUNCTION        3.02          1.300        0.000
  YS02001622           JUNCTION        4.81          0.574        0.046
  YS02001633           JUNCTION        5.45          0.966        0.094
  YS02001649           JUNCTION        5.51          1.050        0.000
  YS02001757           JUNCTION        5.64          1.097        0.113
  YS02001625           JUNCTION        5.26          0.780        0.000
  YS02163301           JUNCTION        5.42          0.916        0.114
  YS02163601           JUNCTION        5.51          1.034        0.046
  YS02164001           JUNCTION        5.46          0.959        0.141
  YS02001647           JUNCTION        5.24          0.778        0.122
  YS02006553           JUNCTION        0.39          0.066        1.124
  YS02001783           JUNCTION        0.16          0.660        0.940
  YS02001784           JUNCTION        0.26          0.630        0.860
  YS02001786           JUNCTION        0.18          0.968        0.462
  YS02001788           JUNCTION        0.11          0.870        0.610
  YS02001790           JUNCTION        0.49          1.157        0.000
  YS02001791           JUNCTION        0.53          0.938        0.982
  YS02001793           JUNCTION        0.64          1.538        1.062
  
  
  *********************
  Node Flooding Summary
  *********************
  
  Flooding refers to all water that overflows a node, whether it ponds or not.
  --------------------------------------------------------------------------
                                                             Total   Maximum
                                 Maximum   Time of Max       Flood    Ponded
                        Hours       Rate    Occurrence      Volume     Depth
  Node                 Flooded       LPS   days hr:min    10^6 ltr    Meters
  --------------------------------------------------------------------------
  YS02001779              0.01      4.17      0  02:58       0.000     0.000
  YS02001629              0.01     29.20      0  03:32       0.000     0.000
  YS02001644              0.30     17.05      0  05:39       0.004     0.000
  YS02001652              0.01     51.54      0  02:58       0.000     0.000
  YS02001655              0.01    232.44      0  02:56       0.001     0.000
  YS02001658              0.01    232.17      0  03:25       0.001     0.000
  YS02001649              0.01     23.30      0  03:25       0.000     0.000
  YS02001625              0.08     14.42      0  03:30       0.001     0.000
  YS02001790              0.01    114.07      0  02:55       0.000     0.000
  JK-storage              0.38    631.42      0  03:04       0.628     0.000
  XR-storage              2.14    237.97      0  07:45       0.871     0.000
  
  
  **********************
  Storage Volume Summary
  **********************
  
  --------------------------------------------------------------------------------------------------
                         Average     Avg  Evap Exfil       Maximum     Max    Time of Max    Maximum
                          Volume    Pcnt  Pcnt  Pcnt        Volume    Pcnt     Occurrence    Outflow
  Storage Unit           1000 m3    Full  Loss  Loss       1000 m3    Full    days hr:min        LPS
  --------------------------------------------------------------------------------------------------
  JK-storage               0.074      25     0     0         0.291     100       0  02:56     600.00
  CC-storage               2.472      16     0     0         3.667      23       0  05:15     400.00
  XR-storage               0.798      86     0     0         0.926     100       0  03:16     380.00
  
  
  ***********************
  Outfall Loading Summary
  ***********************
  
  -----------------------------------------------------------
                         Flow       Avg       Max       Total
                         Freq      Flow      Flow      Volume
  Outfall Node           Pcnt       LPS       LPS    10^6 ltr
  -----------------------------------------------------------
  WSC                   99.99    643.40    867.74      16.145
  3                     83.93    223.65    519.84       3.945
  4                     59.52     61.06    162.95       0.856
  5                      0.00      0.00      0.00       0.000
  -----------------------------------------------------------
  System                60.86    928.12   1419.27      20.946
  
  
  ********************
  Link Flow Summary
  ********************
  
  -----------------------------------------------------------------------------
                                 Maximum  Time of Max   Maximum    Max/    Max/
                                  |Flow|   Occurrence   |Veloc|    Full    Full
  Link                 Type          LPS  days hr:min     m/sec    Flow   Depth
  -----------------------------------------------------------------------------
  WS02003066WSF200     CONDUIT    559.19     0  02:29      2.77    0.09    0.24
  WS02006287WS02006284 CONDUIT    204.71     0  02:27      1.62    0.09    0.22
  WS02006284WS02006280 CONDUIT    204.81     0  02:27      1.86    0.09    0.20
  WS02006280WS02006229 CONDUIT    204.81     0  02:27      2.99    0.04    0.14
  WS02006229WS02006228 CONDUIT    552.79     0  02:22      1.10    1.83    1.00
  WS02006256WS02006235 CONDUIT    166.25     0  00:01      2.58    1.76    1.00
  WS02006253WS02006251 CONDUIT     48.41     0  02:24      0.43    0.15    0.96
  WS02006252WS02006251 CONDUIT    400.69     0  05:43      3.19    1.47    1.00
  WS02006251WS02006249 CONDUIT    433.70     0  02:20      1.20    1.25    0.92
  WS02006249WS02006248 CONDUIT    344.09     0  03:10      1.08    1.88    0.88
  WS02006248WS02006247 CONDUIT    341.74     0  03:10      1.03    0.74    0.93
  WS02006247WS02006245 CONDUIT    339.32     0  03:10      0.99    2.69    0.98
  WS02006245WS02006243 CONDUIT    336.97     0  03:10      1.01    1.00    0.99
  WS02006243WS02006242 CONDUIT    337.53     0  05:43      0.93    0.72    1.00
  WS02006242WS02006240 CONDUIT    337.88     0  05:43      0.91    1.34    1.00
  WS02006240WS02006239 CONDUIT    339.56     0  05:41      0.96    1.07    1.00
  WS02006239WS02006238 CONDUIT    339.04     0  05:41      0.91    1.08    1.00
  WS02006238WS02006235 CONDUIT    339.01     0  05:42      1.25    0.76    1.00
  WS02006235WS02006234 CONDUIT    394.10     0  06:11      1.03    4.16    1.00
  WS02006234WS02006232 CONDUIT    392.38     0  06:11      1.13    0.79    1.00
  WS02006232WS02006231 CONDUIT    392.31     0  06:11      1.07    0.82    1.00
  WS02006231WS02006230 CONDUIT    392.04     0  04:40      1.32    5.95    0.97
  WS02006230WS02006229 CONDUIT    402.20     0  04:40      1.05    8.95    1.00
  WS02006228WS02006109 CONDUIT    552.79     0  02:22      1.10    2.42    1.00
  WS02006116WS02004401 CONDUIT    560.52     0  02:26      0.78    0.77    0.86
  WS02006115WS02006116 CONDUIT    561.77     0  02:22      0.86    0.72    0.78
  WS02006113WS02006111 CONDUIT    576.96     0  02:23      2.49    0.69    0.47
  WS02006112WS02006115 CONDUIT    572.07     0  02:21      0.78    0.34    0.88
  WS02006111WS02006112 CONDUIT    559.24     0  02:22      1.55    0.27    0.68
  WS02006110WS02006113 CONDUIT    554.55     0  02:22      1.31    0.50    0.79
  WS02006109WS02006110 CONDUIT    554.03     0  02:22      1.10    1.07    1.00
  WS02004411WS02004412 CONDUIT    559.30     0  02:28      0.94    0.79    0.71
  WS02004401WS02004402 CONDUIT    560.37     0  02:26      0.77    0.67    0.88
  WS02004413WS02003067 CONDUIT    559.14     0  02:29      1.14    0.24    0.60
  WS02004412WS02004413 CONDUIT    559.21     0  02:28      0.84    0.37    0.79
  WS02004410WS02004411 CONDUIT    559.41     0  02:28      0.95    0.76    0.70
  WS02004409WS02004410 CONDUIT    559.76     0  02:27      0.97    0.72    0.69
  WS02004407WS02004409 CONDUIT    560.10     0  02:27      1.46    0.20    0.49
  WS02004406WS02004407 CONDUIT    560.16     0  02:27      1.06    0.25    0.64
  WS02004405WS02004406 CONDUIT    560.33     0  02:27      0.72    1.11    0.97
  WS02004404WS02004405 CONDUIT    560.25     0  02:27      0.84    5.49    0.97
  WS02004403WS02004404 CONDUIT    560.20     0  02:27      0.74    0.40    0.94
  WS02004402WS02004403 CONDUIT    560.27     0  02:26      0.76    0.80    0.90
  WS02004139WS02001211 CONDUIT    380.31     0  01:10      0.81    0.48    0.58
  WS02004138WS02004139 CONDUIT    380.04     0  01:00      3.33    0.08    0.43
  WS02003067WS02003066 CONDUIT    559.17     0  02:29      1.23    0.18    0.42
  WS02001213WS02003059 CONDUIT    387.61     0  01:10      0.80    0.64    0.74
  WS02001212WS02001213 CONDUIT    387.63     0  01:10      1.32    0.60    0.44
  WS02001211WS02001212 CONDUIT    387.64     0  01:10      0.78    0.30    0.63
  WS02003072WS02003073 CONDUIT    865.98     0  02:32      1.68    1.87    0.47
  WS02003069WS02003072 CONDUIT    866.03     0  02:32      1.58    0.42    0.49
  WS02003060WS02003069 CONDUIT    865.79     0  02:31      1.83    0.34    0.44
  WS02003059WS02003060 CONDUIT    387.60     0  01:11      0.95    0.25    0.63
  HS02004901HS02004770 CONDUIT      9.22     0  02:24      0.05    0.03    0.31
  HS02004876HS02004881 CONDUIT     36.81     0  02:26      0.59    0.39    0.09
  HS02004870HS02004876 CONDUIT     29.40     0  02:26      0.41    0.02    0.10
  HS02004842HS02004848 CONDUIT      6.79     0  02:51      0.04    0.00    0.28
  HS02004837HS02004842 CONDUIT      7.01     0  03:02      0.41    0.00    0.29
  HS02004830HS02004837 CONDUIT     25.65     0  02:26      0.46    0.03    0.08
  HS02004824HS02004830 CONDUIT     25.79     0  02:27      0.49    0.03    0.08
  HS02004817HS02004824 CONDUIT     44.91     0  02:27      0.17    0.02    0.41
  HS02004770HS02004777 CONDUIT     48.37     0  02:24      0.21    0.09    0.33
  HS02004799HS02004480 CONDUIT    123.11     0  02:25      0.58    0.16    0.31
  HS02004792HS02004799 CONDUIT    112.10     0  02:25      0.66    0.07    0.24
  HS02004788HS02004792 CONDUIT     65.23     0  02:26      0.81    0.04    0.11
  HS02004785HS02004788 CONDUIT     48.34     0  02:26      0.49    0.36    0.14
  HS02004777HS02004785 CONDUIT     48.24     0  02:25      0.26    0.06    0.26
  HS02004480HS02004478 CONDUIT    146.06     0  02:26      0.94    0.62    0.22
  HS02004479HS02004480 CONDUIT     23.22     0  02:28      0.27    0.02    0.30
  HS02004862HS02004870 CONDUIT     22.03     0  02:27      0.49    0.02    0.06
  HS02004848HS02004852 CONDUIT      9.33     0  02:26      0.33    0.01    0.04
  HS02004856HS02004862 CONDUIT     14.82     0  02:26      0.35    0.01    0.06
  HS02004852HS02004856 CONDUIT      9.30     0  02:27      0.14    0.01    0.10
  HS02004802HS02004478 CONDUIT     59.19     0  02:29      0.33    0.05    0.26
  HS02004478WS02006287 CONDUIT    204.70     0  02:27      1.31    0.06    0.17
  HS02004817HS02004807 CONDUIT     45.68     0  02:29      0.13    0.03    0.52
  HS02004807HS02004802 CONDUIT     59.00     0  02:28      0.28    0.11    0.31
  YS02001759YS02001757 CONDUIT    397.06     0  02:59      0.51    0.28    1.00
  YS02001762YS02001759 CONDUIT    216.73     0  02:59      0.28    0.25    1.00
  YS02001765YS02001762 CONDUIT    213.46     0  02:59      0.28    0.20    1.00
  YS02001770YS02001767 CONDUIT    206.01     0  02:59      0.26    0.82    1.00
  YS02001774YS02001770 CONDUIT     32.81     0  01:57      0.22    0.02    1.00
  YS02001779YS02001774 CONDUIT     22.56     0  02:51      0.05    0.01    1.00
  YS02001649YS02001757 CONDUIT    616.62     0  02:59      0.79    0.37    1.00
  YS02001767YS02001765 CONDUIT    209.70     0  02:59      0.30    0.26    1.00
  YS02006561YS02001783 CONDUIT    660.62     0  02:56      2.09    0.34    0.77
  YS02001783YS02001784 CONDUIT    660.42     0  02:58      1.53    0.91    1.00
  YS02001784YS02001785 CONDUIT    661.55     0  02:58      1.63    1.54    1.00
  YS02001788YS02001790 CONDUIT    660.69     0  02:57      2.16    0.49    1.00
  YS02001790YS02001791 CONDUIT    660.93     0  02:57      2.56    0.72    1.00
  YS02001791YS02001793 CONDUIT    736.64     0  02:53      5.24    0.32    1.00
  YS02001910YS02001907 CONDUIT    220.55     0  03:01      0.49    0.12    0.91
  YS02001786YS02001788 CONDUIT    660.61     0  02:58      2.09    1.27    1.00
  YS02001915YS02001910 CONDUIT    211.01     0  02:57      0.55    0.10    0.71
  YS02001918YS02001915 CONDUIT     83.73     0  03:02      0.44    0.05    0.43
  YS02001923YS02001920 CONDUIT     64.77     0  03:02      0.57    0.03    0.22
  YS02001926YS02001923 CONDUIT     64.74     0  03:02      0.66    0.09    0.18
  YS02001929YS02001926 CONDUIT     64.92     0  03:01      0.71    0.03    0.17
  YS02001920YS02001918 CONDUIT     76.28     0  03:02      0.57    0.07    0.29
  YS02001629YS02163301 CONDUIT    159.42     0  03:02      0.20    0.20    1.00
  YS02001619YS02001622 CONDUIT    167.87     0  02:56      0.57    0.25    1.00
  YS02001622YS02001625 CONDUIT    219.22     0  02:54      0.31    0.12    1.00
  YS02001625YS02001629 CONDUIT    218.92     0  02:54      0.28    0.10    1.00
  YS02163301YS02001633 CONDUIT    159.30     0  03:02      0.20    0.15    1.00
  YS02163601YS02164001 CONDUIT    301.91     0  03:02      0.38    0.27    1.00
  YS02164001YS02001641 CONDUIT    301.04     0  03:02      0.38    0.41    1.00
  YS02001641YS02001644 CONDUIT    300.53     0  03:02      0.38    0.97    1.00
  YS02001647YS02001649 CONDUIT    441.04     0  03:01      0.56    0.23    1.00
  YS02006553YS02006556 CONDUIT    445.25     0  03:03      0.57    0.38    0.99
  YS02006556YS02006558 CONDUIT    473.38     0  03:03      0.60    0.37    1.00
  YSB6556YSB1171       CONDUIT     13.19     0  02:28      0.06    0.01    0.57
  YS02001907YS02006553 CONDUIT    450.71     0  03:03      0.50    0.53    1.00
  YS02006558YS02006561 CONDUIT    694.47     0  03:03      3.20    1.53    0.80
  YS02001633YS02163601 CONDUIT    302.12     0  03:02      0.38    0.32    1.00
  YS02001644YS02001647 CONDUIT    441.49     0  03:01      0.56    0.26    1.00
  YS02001745YS02001748 CONDUIT    365.84     0  03:32      1.42    0.14    0.91
  YS02001748YS02001751 CONDUIT    341.58     0  02:59      1.00    0.17    1.00
  YS02001751YS02001754 CONDUIT    204.63     0  02:55      0.86    0.10    1.00
  YS02001754YS02001757 CONDUIT    204.19     0  02:55      0.33    0.08    1.00
  YS02001882YS02001884 CONDUIT     12.61     0  03:00      0.09    0.01    0.65
  YS02001884YS02001887 CONDUIT     21.18     0  03:00      0.05    0.03    0.74
  YS02001890YS02001895 CONDUIT    232.60     0  02:56      0.40    0.11    0.71
  YS02001895YS02001898 CONDUIT    238.89     0  02:57      0.53    0.41    0.58
  YS02001898YS02001901 CONDUIT    240.66     0  02:56      0.46    0.16    0.66
  YS02001901YS02001904 CONDUIT    236.42     0  02:58      0.42    0.37    0.71
  YS02001904YS02001907 CONDUIT    249.20     0  03:04      0.35    0.09    0.85
  YS02001887YS02001890 CONDUIT    235.97     0  02:56      0.36    0.40    0.80
  YS02001652YS02001649 CONDUIT    219.18     0  02:59      0.56    0.11    1.00
  YS02001655YS02001652 CONDUIT    219.80     0  02:59      0.91    0.11    1.00
  YS02001658YS02001655 CONDUIT    397.32     0  02:56      1.15    0.17    1.00
  YS02001661YS02001658 CONDUIT    526.65     0  03:20      1.49    0.21    0.97
  YS02001664YS02001661 CONDUIT    386.48     0  04:29      1.40    0.12    0.68
  YSB1154YSB6556       CONDUIT     13.14     0  02:25      0.16    0.02    0.46
  YSB1174YSB1171       CONDUIT     10.08     0  02:23      0.04    0.02    0.57
  YSB1171HS02004479    CONDUIT     23.09     0  02:27      0.54    0.02    0.44
  HS02004881HS02006253 CONDUIT     40.75     0  02:26      1.48    0.01    0.27
  YS02001793JiankangQianchi CONDUIT    961.57     0  02:52     14.25    0.08    1.00
  YS02001757CaochengTiaoxuchi CONDUIT   1095.40     0  03:02      1.77    0.48    1.00
  WSF200WS02003060     CONDUIT    559.27     0  02:29      1.83    0.12    0.34
  1                    CONDUIT    867.74     0  02:33      3.20    0.30    0.38
  2                    CONDUIT    162.95     0  02:20      5.54    0.39    0.43
  3                    CONDUIT    519.84     0  02:20     10.04    0.83    0.70
  4                    CONDUIT      0.00     0  00:00      0.00    0.00    0.00
  CC-Pump-1            PUMP       200.00     0  03:10              1.00
  CC-Pump-2            PUMP       200.00     0  02:10              1.00
  JK-Pump-1            PUMP       300.00     0  03:20              1.00
  JK-Pump-2            PUMP       300.00     0  00:00              1.00
  XR-Pump-1            PUMP        95.00     0  00:00              1.00
  XR-Pump-2            PUMP        95.00     0  00:00              1.00
  XR-Pump-3            PUMP        95.00     0  00:00              1.00
  XR-Pump-4            PUMP        95.00     0  00:20              1.00
  
  
  ***************************
  Flow Classification Summary
  ***************************
  
  -------------------------------------------------------------------------------------
                      Adjusted    ---------- Fraction of Time in Flow Class ---------- 
                       /Actual         Up    Down  Sub   Sup   Up    Down  Norm  Inlet 
  Conduit               Length    Dry  Dry   Dry   Crit  Crit  Crit  Crit  Ltd   Ctrl  
  -------------------------------------------------------------------------------------
  WS02003066WSF200        1.00   0.04  0.02  0.00  0.00  0.94  0.00  0.00  0.65  0.00
  WS02006287WS02006284    1.00   0.04  0.01  0.00  0.61  0.34  0.00  0.00  0.77  0.00
  WS02006284WS02006280    1.00   0.04  0.00  0.00  0.00  0.00  0.00  0.96  0.00  0.00
  WS02006280WS02006229    1.00   0.04  0.00  0.00  0.00  0.00  0.00  0.96  0.00  0.00
  WS02006229WS02006228    1.00   0.00  0.00  0.00  0.99  0.00  0.00  0.01  0.00  0.00
  WS02006256WS02006235    1.00   0.00  0.00  0.00  1.00  0.00  0.00  0.00  0.00  0.00
  WS02006253WS02006251    1.00   0.03  0.01  0.00  0.96  0.00  0.00  0.00  0.00  0.00
  WS02006252WS02006251    1.00   0.07  0.00  0.00  0.00  0.00  0.93  0.00  0.00  0.00
  WS02006251WS02006249    1.00   0.00  0.00  0.00  1.00  0.00  0.00  0.00  0.23  0.00
  WS02006249WS02006248    1.00   0.00  0.02  0.00  0.92  0.00  0.06  0.00  0.00  0.00
  WS02006248WS02006247    1.00   0.02  0.00  0.00  0.98  0.00  0.00  0.00  0.11  0.00
  WS02006247WS02006245    1.00   0.02  0.00  0.00  0.98  0.00  0.00  0.00  0.00  0.00
  WS02006245WS02006243    1.00   0.01  0.00  0.00  0.95  0.00  0.00  0.03  0.01  0.00
  WS02006243WS02006242    1.00   0.01  0.00  0.00  0.99  0.00  0.00  0.00  0.20  0.00
  WS02006242WS02006240    1.00   0.00  0.00  0.00  1.00  0.00  0.00  0.00  0.00  0.00
  WS02006240WS02006239    1.00   0.00  0.00  0.00  0.97  0.00  0.00  0.03  0.01  0.00
  WS02006239WS02006238    1.00   0.00  0.00  0.00  1.00  0.00  0.00  0.00  0.02  0.00
  WS02006238WS02006235    1.00   0.00  0.00  0.00  1.00  0.00  0.00  0.00  0.00  0.00
  WS02006235WS02006234    1.00   0.00  0.00  0.00  0.97  0.00  0.03  0.00  0.00  0.00
  WS02006234WS02006232    1.00   0.00  0.00  0.00  1.00  0.00  0.00  0.00  0.06  0.00
  WS02006232WS02006231    1.00   0.00  0.00  0.00  0.99  0.00  0.00  0.00  0.00  0.00
  WS02006231WS02006230    1.00   0.00  0.00  0.00  0.82  0.00  0.17  0.00  0.00  0.00
  WS02006230WS02006229    1.00   0.00  0.00  0.00  0.99  0.00  0.00  0.01  0.00  0.00
  WS02006228WS02006109    1.00   0.00  0.00  0.00  1.00  0.00  0.00  0.00  0.00  0.00
  WS02006116WS02004401    1.00   0.02  0.00  0.00  0.98  0.00  0.00  0.00  0.00  0.00
  WS02006115WS02006116    1.00   0.02  0.00  0.00  0.97  0.00  0.00  0.01  0.00  0.00
  WS02006113WS02006111    1.00   0.02  0.00  0.00  0.00  0.98  0.00  0.00  0.09  0.00
  WS02006112WS02006115    1.00   0.02  0.00  0.00  0.98  0.00  0.00  0.00  0.00  0.00
  WS02006111WS02006112    1.00   0.02  0.00  0.00  0.98  0.00  0.00  0.00  0.98  0.00
  WS02006110WS02006113    1.00   0.01  0.01  0.00  0.98  0.00  0.00  0.00  0.00  0.00
  WS02006109WS02006110    1.00   0.00  0.01  0.00  0.98  0.00  0.01  0.00  0.00  0.00
  WS02004411WS02004412    1.00   0.04  0.00  0.00  0.96  0.00  0.00  0.00  0.00  0.00
  WS02004401WS02004402    1.00   0.02  0.00  0.00  0.98  0.00  0.00  0.00  0.00  0.00
  WS02004413WS02003067    1.00   0.04  0.01  0.00  0.00  0.00  0.95  0.00  0.00  0.00
  WS02004412WS02004413    1.00   0.04  0.00  0.00  0.96  0.00  0.00  0.00  0.03  0.00
  WS02004410WS02004411    1.00   0.04  0.00  0.00  0.96  0.00  0.00  0.00  0.03  0.00
  WS02004409WS02004410    1.00   0.04  0.00  0.00  0.96  0.00  0.00  0.00  0.03  0.00
  WS02004407WS02004409    1.00   0.04  0.00  0.00  0.96  0.00  0.00  0.00  0.89  0.00
  WS02004406WS02004407    1.00   0.00  0.03  0.00  0.97  0.00  0.00  0.00  0.00  0.00
  WS02004405WS02004406    1.00   0.00  0.00  0.00  1.00  0.00  0.00  0.00  0.01  0.00
  WS02004404WS02004405    1.00   0.00  0.00  0.00  1.00  0.00  0.00  0.00  0.00  0.00
  WS02004403WS02004404    1.00   0.00  0.02  0.00  0.98  0.00  0.00  0.00  0.01  0.00
  WS02004402WS02004403    1.00   0.02  0.00  0.00  0.98  0.00  0.00  0.00  0.00  0.00
  WS02004139WS02001211    1.00   0.00  0.00  0.00  1.00  0.00  0.00  0.00  0.00  0.00
  WS02004138WS02004139    1.00   0.00  0.00  0.00  0.99  0.01  0.00  0.00  1.00  0.00
  WS02003067WS02003066    1.00   0.05  0.00  0.00  0.95  0.00  0.00  0.00  0.00  0.00
  WS02001213WS02003059    1.00   0.00  0.00  0.00  0.99  0.00  0.00  0.00  0.00  0.00
  WS02001212WS02001213    1.00   0.00  0.00  0.00  0.91  0.00  0.09  0.00  0.00  0.00
  WS02001211WS02001212    1.00   0.00  0.00  0.00  1.00  0.00  0.00  0.00  0.00  0.00
  WS02003072WS02003073    1.00   0.00  0.00  0.00  0.00  0.00  0.00  1.00  0.00  0.00
  WS02003069WS02003072    1.00   0.00  0.00  0.00  0.99  0.01  0.00  0.00  0.21  0.00
  WS02003060WS02003069    1.00   0.00  0.00  0.00  0.99  0.01  0.00  0.00  0.11  0.00
  WS02003059WS02003060    1.00   0.00  0.00  0.00  1.00  0.00  0.00  0.00  0.01  0.00
  HS02004901HS02004770    1.00   0.04  0.00  0.00  0.96  0.00  0.00  0.00  0.00  0.00
  HS02004876HS02004881    1.00   0.02  0.00  0.00  0.98  0.00  0.00  0.00  0.00  0.00
  HS02004870HS02004876    1.00   0.00  0.00  0.00  0.99  0.00  0.00  0.00  0.95  0.00
  HS02004842HS02004848    1.00   0.00  0.04  0.00  0.96  0.00  0.00  0.00  0.61  0.00
  HS02004837HS02004842    1.00   0.00  0.00  0.00  0.99  0.01  0.00  0.00  0.11  0.00
  HS02004830HS02004837    1.00   0.00  0.00  0.00  1.00  0.00  0.00  0.00  0.99  0.00
  HS02004824HS02004830    1.00   0.00  0.00  0.00  1.00  0.00  0.00  0.00  0.00  0.00
  HS02004817HS02004824    1.00   0.00  0.00  0.00  1.00  0.00  0.00  0.00  1.00  0.00
  HS02004770HS02004777    1.00   0.00  0.04  0.00  0.96  0.00  0.00  0.00  0.03  0.00
  HS02004799HS02004480    1.00   0.00  0.02  0.00  0.95  0.00  0.02  0.00  0.00  0.00
  HS02004792HS02004799    1.00   0.00  0.00  0.00  0.99  0.01  0.00  0.00  0.98  0.00
  HS02004788HS02004792    1.00   0.00  0.00  0.00  0.99  0.01  0.00  0.00  0.98  0.00
  HS02004785HS02004788    1.00   0.00  0.00  0.00  1.00  0.00  0.00  0.00  0.00  0.00
  HS02004777HS02004785    1.00   0.00  0.00  0.00  1.00  0.00  0.00  0.00  0.13  0.00
  HS02004480HS02004478    1.00   0.04  0.00  0.00  0.67  0.00  0.00  0.29  0.00  0.00
  HS02004479HS02004480    1.00   0.03  0.00  0.00  0.97  0.00  0.00  0.00  0.12  0.00
  HS02004862HS02004870    1.00   0.00  0.00  0.00  1.00  0.00  0.00  0.00  0.06  0.00
  HS02004848HS02004852    1.00   0.04  0.00  0.00  0.96  0.00  0.00  0.00  0.69  0.00
  HS02004856HS02004862    1.00   0.00  0.05  0.00  0.95  0.00  0.00  0.00  0.81  0.00
  HS02004852HS02004856    1.00   0.04  0.00  0.00  0.96  0.00  0.00  0.00  0.86  0.00
  HS02004802HS02004478    1.00   0.04  0.00  0.00  0.96  0.00  0.00  0.00  0.03  0.00
  HS02004478WS02006287    1.00   0.05  0.00  0.00  0.75  0.20  0.00  0.00  0.77  0.00
  HS02004817HS02004807    1.00   0.00  0.04  0.00  0.96  0.00  0.00  0.00  0.01  0.00
  HS02004807HS02004802    1.00   0.04  0.00  0.00  0.96  0.00  0.00  0.00  0.00  0.00
  YS02001759YS02001757    1.00   0.00  0.00  0.00  1.00  0.00  0.00  0.00  0.16  0.00
  YS02001762YS02001759    1.00   0.00  0.00  0.00  1.00  0.00  0.00  0.00  0.03  0.00
  YS02001765YS02001762    1.00   0.00  0.00  0.00  1.00  0.00  0.00  0.00  0.15  0.00
  YS02001770YS02001767    1.00   0.00  0.00  0.00  1.00  0.00  0.00  0.00  0.00  0.00
  YS02001774YS02001770    1.00   0.00  0.04  0.00  0.96  0.00  0.00  0.00  0.03  0.00
  YS02001779YS02001774    1.00   0.00  0.00  0.00  1.00  0.00  0.00  0.00  0.21  0.00
  YS02001649YS02001757    1.00   0.00  0.00  0.00  1.00  0.00  0.00  0.00  0.16  0.00
  YS02001767YS02001765    1.00   0.00  0.00  0.00  1.00  0.00  0.00  0.00  0.01  0.00
  YS02006561YS02001783    1.00   0.05  0.00  0.00  0.07  0.87  0.00  0.00  0.63  0.00
  YS02001783YS02001784    1.00   0.00  0.05  0.00  0.95  0.00  0.00  0.00  0.01  0.00
  YS02001784YS02001785    1.00   0.00  0.00  0.00  1.00  0.00  0.00  0.00  0.19  0.00
  YS02001788YS02001790    1.00   0.00  0.00  0.00  0.15  0.85  0.00  0.00  0.60  0.00
  YS02001790YS02001791    1.00   0.00  0.00  0.00  0.11  0.89  0.00  0.00  0.67  0.00
  YS02001791YS02001793    1.00   0.00  0.00  0.00  0.12  0.88  0.00  0.00  0.01  0.00
  YS02001910YS02001907    1.00   0.00  0.00  0.00  0.98  0.00  0.00  0.02  0.12  0.00
  YS02001786YS02001788    1.00   0.00  0.00  0.00  0.14  0.86  0.00  0.00  0.00  0.00
  YS02001915YS02001910    1.00   0.00  0.00  0.00  0.99  0.01  0.00  0.00  0.18  0.00
  YS02001918YS02001915    1.00   0.00  0.01  0.00  0.98  0.01  0.00  0.00  0.69  0.00
  YS02001923YS02001920    1.00   0.00  0.00  0.00  1.00  0.00  0.00  0.00  1.00  0.00
  YS02001926YS02001923    1.00   0.00  0.03  0.00  0.00  0.00  0.97  0.00  0.00  0.00
  YS02001929YS02001926    1.00   0.00  0.04  0.00  0.96  0.00  0.00  0.00  0.87  0.00
  YS02001920YS02001918    1.00   0.00  0.01  0.00  0.99  0.00  0.00  0.00  0.00  0.00
  YS02001629YS02163301    1.00   0.04  0.00  0.00  0.95  0.00  0.00  0.00  0.00  0.00
  YS02001619YS02001622    1.00   0.04  0.00  0.00  0.96  0.00  0.00  0.00  0.00  0.00
  YS02001622YS02001625    1.00   0.04  0.00  0.00  0.96  0.00  0.00  0.00  0.07  0.00
  YS02001625YS02001629    1.00   0.04  0.01  0.00  0.93  0.00  0.02  0.00  0.00  0.00
  YS02163301YS02001633    1.00   0.00  0.04  0.00  0.96  0.00  0.00  0.00  0.00  0.00
  YS02163601YS02164001    1.00   0.00  0.03  0.00  0.97  0.00  0.00  0.00  0.00  0.00
  YS02164001YS02001641    1.00   0.01  0.02  0.00  0.97  0.00  0.00  0.00  0.06  0.00
  YS02001641YS02001644    1.00   0.00  0.01  0.00  0.99  0.00  0.00  0.00  0.00  0.00
  YS02001647YS02001649    1.00   0.00  0.05  0.00  0.95  0.00  0.00  0.00  0.01  0.00
  YS02006553YS02006556    1.00   0.01  0.00  0.00  0.99  0.00  0.00  0.00  0.03  0.00
  YS02006556YS02006558    1.00   0.00  0.00  0.00  1.00  0.00  0.00  0.00  0.00  0.00
  YSB6556YSB1171          1.00   0.03  0.01  0.00  0.96  0.00  0.00  0.00  0.00  0.00
  YS02001907YS02006553    1.00   0.00  0.02  0.00  0.98  0.00  0.00  0.00  0.00  0.00
  YS02006558YS02006561    1.00   0.05  0.00  0.00  0.00  0.95  0.00  0.00  0.60  0.00
  YS02001633YS02163601    1.00   0.00  0.01  0.00  0.99  0.00  0.00  0.00  0.15  0.00
  YS02001644YS02001647    1.00   0.00  0.05  0.00  0.95  0.00  0.00  0.00  0.00  0.00
  YS02001745YS02001748    1.00   0.00  0.00  0.00  0.87  0.01  0.00  0.11  0.07  0.00
  YS02001748YS02001751    1.00   0.00  0.00  0.00  0.97  0.03  0.00  0.00  0.16  0.00
  YS02001751YS02001754    1.00   0.00  0.00  0.00  0.94  0.00  0.00  0.06  0.02  0.00
  YS02001754YS02001757    1.00   0.00  0.00  0.00  0.99  0.01  0.00  0.00  0.20  0.00
  YS02001882YS02001884    1.00   0.04  0.00  0.00  0.96  0.00  0.00  0.00  0.00  0.00
  YS02001884YS02001887    1.00   0.03  0.01  0.00  0.96  0.00  0.00  0.00  0.00  0.00
  YS02001890YS02001895    1.00   0.00  0.04  0.00  0.95  0.00  0.00  0.00  0.00  0.00
  YS02001895YS02001898    1.00   0.05  0.00  0.00  0.94  0.00  0.01  0.00  0.00  0.00
  YS02001898YS02001901    1.00   0.05  0.00  0.00  0.95  0.00  0.00  0.00  0.03  0.00
  YS02001901YS02001904    1.00   0.05  0.00  0.00  0.95  0.00  0.00  0.00  0.00  0.00
  YS02001904YS02001907    1.00   0.00  0.04  0.00  0.95  0.00  0.00  0.00  0.00  0.00
  YS02001887YS02001890    1.00   0.00  0.00  0.00  0.98  0.00  0.02  0.00  0.00  0.00
  YS02001652YS02001649    1.00   0.00  0.00  0.00  1.00  0.00  0.00  0.00  0.18  0.00
  YS02001655YS02001652    1.00   0.00  0.00  0.00  0.94  0.00  0.00  0.06  0.02  0.00
  YS02001658YS02001655    1.00   0.00  0.04  0.00  0.93  0.03  0.00  0.00  0.12  0.00
  YS02001661YS02001658    1.00   0.04  0.00  0.00  0.87  0.09  0.00  0.00  0.16  0.00
  YS02001664YS02001661    1.00   0.04  0.00  0.00  0.83  0.13  0.00  0.00  0.33  0.00
  YSB1154YSB6556          1.00   0.04  0.00  0.00  0.96  0.00  0.00  0.00  0.02  0.00
  YSB1174YSB1171          1.00   0.03  0.01  0.00  0.97  0.00  0.00  0.00  0.00  0.00
  YSB1171HS02004479       1.00   0.03  0.00  0.00  0.97  0.00  0.00  0.00  0.10  0.00
  HS02004881HS02006253    1.00   0.03  0.00  0.00  0.91  0.00  0.00  0.05  0.75  0.00
  YS02001793JiankangQianchi    1.00   0.00  0.00  0.00  0.45  0.54  0.00  0.00  0.30  0.00
  YS02001757CaochengTiaoxuchi    1.00   0.00  0.07  0.00  0.93  0.00  0.00  0.00  0.00  0.00
  WSF200WS02003060        1.00   0.00  0.04  0.00  0.71  0.25  0.00  0.00  0.12  0.00
  1                       1.00   0.00  0.00  0.00  0.00  1.00  0.00  0.00  0.30  0.00
  2                       1.00   0.40  0.00  0.00  0.00  0.60  0.00  0.00  0.13  0.00
  3                       1.00   0.16  0.00  0.00  0.00  0.84  0.00  0.00  0.28  0.00
  4                       1.00   1.00  0.00  0.00  0.00  0.00  0.00  0.00  0.00  0.00
  
  
  *************************
  Conduit Surcharge Summary
  *************************
  
  ----------------------------------------------------------------------------
                                                           Hours        Hours 
                         --------- Hours Full --------   Above Full   Capacity
  Conduit                Both Ends  Upstream  Dnstream   Normal Flow   Limited
  ----------------------------------------------------------------------------
  WS02006229WS02006228        3.41      3.65      3.41      5.77         3.41
  WS02006256WS02006235        6.14      6.14      7.41      1.68         0.01
  WS02006252WS02006251        2.40      2.40      3.71      3.37         0.01
  WS02006251WS02006249        0.01      0.01      0.01      2.46         0.01
  WS02006249WS02006248        0.01      0.01      0.01      5.82         0.01
  WS02006247WS02006245        0.01      0.01      0.01      5.84         0.01
  WS02006245WS02006243        0.01      0.01      0.04      0.01         0.01
  WS02006243WS02006242        0.08      0.08      2.32      0.01         0.01
  WS02006242WS02006240        0.39      0.39      3.04      3.90         0.01
  WS02006240WS02006239        0.98      0.98      1.25      0.29         0.01
  WS02006239WS02006238        2.93      2.93      3.13      0.58         0.31
  WS02006238WS02006235        2.95      2.95      3.46      0.01         0.01
  WS02006235WS02006234        0.47      0.47      2.48      6.16         0.01
  WS02006234WS02006232        1.33      1.33      3.62      0.01         0.01
  WS02006232WS02006231        0.07      0.07      3.62      0.01         0.01
  WS02006231WS02006230        0.01      0.01      0.15      6.16         0.01
  WS02006230WS02006229        4.70      5.53      4.70      6.26         4.70
  WS02006228WS02006109        3.54      4.08      3.54      5.98         3.54
  WS02006112WS02006115        0.01      0.01      0.79      0.01         0.01
  WS02006111WS02006112        0.01      0.01      5.83      0.01         0.01
  WS02006110WS02006113        0.01      0.01      3.84      0.01         0.01
  WS02006109WS02006110        0.40      0.40      4.08      0.41         0.01
  WS02004405WS02004406        0.01      0.01      0.01      0.73         0.01
  WS02004404WS02004405        0.01      0.01      0.01      5.99         0.01
  WS02003072WS02003073        0.01      0.01      0.01      5.67         0.01
  YS02001759YS02001757        5.53      5.53      5.64      0.01         0.01
  YS02001762YS02001759        5.50      5.50      5.53      0.01         0.01
  YS02001765YS02001762        5.46      5.46      5.50      0.01         0.01
  YS02001770YS02001767        5.42      5.42      5.42      0.01         0.71
  YS02001774YS02001770        5.38      5.38      5.49      0.01         0.01
  YS02001779YS02001774        5.11      5.11      5.49      0.01         0.01
  YS02001649YS02001757        5.51      5.51      5.64      0.01         0.01
  YS02001767YS02001765        5.42      5.42      5.46      0.01         0.01
  YS02006561YS02001783        0.01      0.01      0.16      0.01         0.01
  YS02001783YS02001784        0.16      0.16      0.26      0.01         0.02
  YS02001784YS02001785        0.18      0.26      0.18      1.11         0.16
  YS02001788YS02001790        0.11      0.11      0.48      0.01         0.01
  YS02001790YS02001791        0.48      0.48      0.53      0.01         0.01
  YS02001791YS02001793        0.53      0.53      0.67      0.01         0.01
  YS02001910YS02001907        0.01      0.01      0.28      0.01         0.01
  YS02001786YS02001788        0.11      0.18      0.11      0.68         0.09
  YS02001629YS02163301        5.37      5.37      5.42      0.01         0.01
  YS02001619YS02001622        4.59      4.59      4.81      0.01         0.04
  YS02001622YS02001625        4.81      4.81      5.26      0.01         0.01
  YS02001625YS02001629        4.61      4.61      5.26      0.01         0.01
  YS02163301YS02001633        5.42      5.42      5.47      0.01         0.01
  YS02163601YS02164001        5.46      5.46      5.51      0.01         0.01
  YS02164001YS02001641        5.46      5.46      5.48      0.01         0.02
  YS02001641YS02001644        5.48      5.48      5.48      0.01         1.03
  YS02001647YS02001649        5.24      5.24      5.51      0.01         0.01
  YS02006553YS02006556        0.01      0.01      0.39      0.01         0.01
  YS02006556YS02006558        0.03      0.03      0.52      0.01         0.01
  YS02001907YS02006553        1.12      1.12      1.35      0.01         0.01
  YS02006558YS02006561        0.01      0.01      0.01      0.94         0.01
  YS02001633YS02163601        5.45      5.45      5.51      0.01         0.01
  YS02001644YS02001647        5.24      5.24      5.48      0.01         0.01
  YS02001745YS02001748        0.01      0.01      2.99      0.01         0.01
  YS02001748YS02001751        3.57      3.57      4.66      0.01         0.01
  YS02001751YS02001754        4.66      4.66      5.14      0.01         0.01
  YS02001754YS02001757        5.22      5.22      5.64      0.01         0.01
  YS02001904YS02001907        0.01      0.01      0.43      0.01         0.01
  YS02001652YS02001649        5.25      5.25      5.51      0.01         0.01
  YS02001655YS02001652        4.68      4.68      5.21      0.01         0.01
  YS02001658YS02001655        3.01      3.01      4.68      0.01         0.01
  YS02001661YS02001658        0.01      0.01      3.01      0.01         0.01
  YS02001664YS02001661        0.01      0.01      0.09      0.01         0.01
  YS02001793JiankangQianchi        0.64      0.64      2.48      0.01         0.01
  YS02001757CaochengTiaoxuchi        4.24      4.24      5.64      0.01         0.01
  
  
  ***************
  Pumping Summary
  ***************
  
  ---------------------------------------------------------------------------------------------------------
                                                  Min       Avg       Max     Total     Power    % Time Off
                        Percent   Number of      Flow      Flow      Flow    Volume     Usage    Pump Curve
  Pump                 Utilized   Start-Ups       LPS       LPS       LPS  10^6 ltr     Kw-hr    Low   High
  ---------------------------------------------------------------------------------------------------------
  CC-Pump-1               71.34           5      0.00    153.90    200.00     3.146      5.98    0.0   11.8
  CC-Pump-2               70.21           4      0.00    162.45    200.00     3.240      6.83    0.0   13.4
  JK-Pump-1               76.57          10      0.00    149.49    300.00     2.524     38.90    0.0    0.0
  JK-Pump-2               82.98           6      0.00    174.22    300.00     3.248     48.65    0.0    0.0
  XR-Pump-1               76.58           9      0.00     68.61     95.00     1.511     13.91    0.0    0.0
  XR-Pump-2               95.73           8      0.00     70.23     95.00     1.853     16.03    0.0    0.0
  XR-Pump-3               89.35           8      0.00     63.81     95.00     1.682     16.57    0.0    0.0
  XR-Pump-4               91.47           6      0.00     72.76     95.00     1.824     16.54    0.0    0.0
  

  Analysis begun on:  Mon Dec 20 20:16:18 2021
  Analysis ended on:  Mon Dec 20 20:16:23 2021
  Total elapsed time: 00:00:05