
  EPA STORM WATER MANAGEMENT MODEL - VERSION 5.1 (Build 5.3.0.dev0)
  --------------------------------------------------------------

  WARNING 04: minimum elevation drop used for Conduit WS02004404WS02004405
  WARNING 03: negative offset ignored for Link YS02001904YS02001907
  
  *********************************************************
  NOTE: The summary statistics displayed in this report are
  based on results found at every computational time step,  
  not just on results from each reporting time step.
  *********************************************************
  
  ****************
  Analysis Options
  ****************
  Flow Units ............... LPS
  Process Models:
    Rainfall/Runoff ........ YES
    RDII ................... NO
    Snowmelt ............... NO
    Groundwater ............ NO
    Flow Routing ........... YES
    Ponding Allowed ........ NO
    Water Quality .......... NO
  Infiltration Method ...... HORTON
  Flow Routing Method ...... DYNWAVE
  Surcharge Method ......... EXTRAN
  Starting Date ............ 08/28/2015 08:00:00
  Ending Date .............. 08/28/2015 16:00:00
  Antecedent Dry Days ...... 8.0
  Report Time Step ......... 00:01:00
  Wet Time Step ............ 00:01:00
  Dry Time Step ............ 00:01:00
  Routing Time Step ........ 5.00 sec
  Variable Time Step ....... YES
  Maximum Trials ........... 8
  Number of Threads ........ 4
  Head Tolerance ........... 0.001500 m
  
  
  **************************        Volume         Depth
  Runoff Quantity Continuity     hectare-m            mm
  **************************     ---------       -------
  Total Precipitation ......         6.569        14.383
  Evaporation Loss .........         0.000         0.000
  Infiltration Loss ........         1.682         3.682
  Surface Runoff ...........         3.840         8.407
  Final Storage ............         1.049         2.296
  Continuity Error (%) .....        -0.013
  
  
  **************************        Volume        Volume
  Flow Routing Continuity        hectare-m      10^6 ltr
  **************************     ---------     ---------
  Dry Weather Inflow .......         0.630         6.296
  Wet Weather Inflow .......         3.839        38.389
  Groundwater Inflow .......         0.000         0.000
  RDII Inflow ..............         0.000         0.000
  External Inflow ..........         0.105         1.045
  External Outflow .........         2.373        23.726
  Flooding Loss ............         1.673        16.728
  Evaporation Loss .........         0.000         0.000
  Exfiltration Loss ........         0.000         0.000
  Initial Stored Volume ....         0.076         0.761
  Final Stored Volume ......         0.636         6.361
  Continuity Error (%) .....        -0.698
  
  
  *************************
  Highest Continuity Errors
  *************************
  Node HS02004842 (14.32%)
  Node YS02001884 (11.04%)
  Node JK-storage (-2.95%)
  Node HS02004817 (2.61%)
  Node YSB1171 (2.60%)
  
  
  ***************************
  Time-Step Critical Elements
  ***************************
  Link WS02006252WS02006251 (61.08%)
  Link 3 (33.13%)
  
  
  ********************************
  Highest Flow Instability Indexes
  ********************************
  Link YS02163601YS02164001 (44)
  Link YS02163301YS02001633 (44)
  Link YS02001629YS02163301 (43)
  Link YS02001619YS02001622 (41)
  Link YS02164001YS02001641 (40)
  
  
  *************************
  Routing Time Step Summary
  *************************
  Minimum Time Step           :     0.50 sec
  Average Time Step           :     0.77 sec
  Maximum Time Step           :     5.00 sec
  Percent in Steady State     :    -0.00
  Average Iterations per Step :     4.65
  Percent Not Converging      :    20.64
  
  
  ***************************
  Subcatchment Runoff Summary
  ***************************
  
  ------------------------------------------------------------------------------------------------------------------------------
                            Total      Total      Total      Total     Imperv       Perv      Total       Total     Peak  Runoff
                           Precip      Runon       Evap      Infil     Runoff     Runoff     Runoff      Runoff   Runoff   Coeff
  Subcatchment                 mm         mm         mm         mm         mm         mm         mm    10^6 ltr      LPS
  ------------------------------------------------------------------------------------------------------------------------------
  sub0                      14.38       0.00       0.00       0.97      12.11       0.03      12.14        0.01     1.84   0.844
  sub1                      14.38       0.00       0.00       1.56      11.54       0.02      11.56        0.08    13.80   0.804
  sub2                      14.38       0.00       0.00       5.31       8.15       0.01       8.17        0.08    13.32   0.568
  sub3                      14.38       0.00       0.00       5.31       8.12       0.01       8.13        0.18    30.48   0.565
  sub4                      14.38       0.00       0.00       1.57      11.39       0.01      11.40        0.24    37.95   0.793
  sub5                      14.38       0.00       0.00       0.99      12.06       0.02      12.08        0.14    24.57   0.840
  sub7                      14.38       0.00       0.00       1.27      11.83       0.03      11.86        0.04     7.37   0.825
  sub8                      14.38       0.00       0.00       1.27      11.82       0.02      11.85        0.08    13.84   0.824
  sub9                      14.38       0.00       0.00       1.27      11.82       0.02      11.84        0.06    10.40   0.824
  sub10                     14.38       0.00       0.00       1.13      11.94       0.02      11.96        0.13    23.83   0.832
  sub11                     14.38       0.00       0.00       1.13      11.96       0.02      11.98        0.14    25.53   0.833
  sub12                     14.38       0.00       0.00       1.83      11.32       0.04      11.36        0.10    18.45   0.790
  sub14                     14.38       0.00       0.00       1.27      11.82       0.02      11.84        0.11    20.54   0.823
  sub15                     14.38       0.00       0.00       4.29       9.09       0.02       9.11        0.16    28.44   0.634
  sub16                     14.38       0.00       0.00       4.71       8.72       0.04       8.75        0.09    16.97   0.609
  sub17                     14.38       0.00       0.00       4.57       8.85       0.03       8.88        0.08    14.08   0.617
  sub22                     14.38       0.00       0.00       6.16       7.41       0.02       7.43        0.47    86.15   0.517
  sub23                     14.38       0.00       0.00       5.29       8.19       0.03       8.22        0.39    72.07   0.571
  sub60                     14.38       0.00       0.00       1.72       9.68       0.00       9.69        2.94   324.54   0.673
  sub61                     14.38       0.00       0.00       2.44       9.75       0.00       9.75        3.01   366.62   0.678
  sub62                     14.38       0.00       0.00       1.15      10.63       0.00      10.63        3.27   386.98   0.739
  sub63                     14.38       0.00       0.00       4.17       8.50       0.00       8.50        2.57   327.84   0.591
  sub64                     14.38       0.00       0.00       2.16       9.30       0.00       9.30        2.83   310.17   0.647
  sub65                     14.38       0.00       0.00       1.87       9.46       0.00       9.46        2.91   316.67   0.658
  sub66                     14.38       0.00       0.00       4.17       7.95       0.00       7.96        2.44   276.41   0.553
  sub67                     14.38       0.00       0.00       1.15      11.13       0.00      11.13        3.43   447.94   0.774
  sub68                     14.38       0.00       0.00       2.01      10.23       0.00      10.23        3.15   394.67   0.711
  sub69                     14.38       0.00       0.00       2.15      10.53       0.00      10.53        2.46   340.70   0.732
  sub70                     14.38      10.75       0.00       8.15      14.25       0.39      14.64        3.35   395.40   0.583
  sub71                     14.38       0.00       0.00       1.15      10.39       0.00      10.39        2.45   281.02   0.722
  sub72                     14.38       0.00       0.00       1.01       8.50       0.00       8.51        1.73   155.38   0.591
  sub73                     14.38      14.26       0.00       9.30      15.97       0.44      16.41        3.86   381.65   0.573
  sub74                     14.38       0.00       0.00      10.79       3.13       0.00       3.13        1.25   179.95   0.218
  
  
  ******************
  Node Depth Summary
  ******************
  
  ---------------------------------------------------------------------------------
                                 Average  Maximum  Maximum  Time of Max    Reported
                                   Depth    Depth      HGL   Occurrence   Max Depth
  Node                 Type       Meters   Meters   Meters  days hr:min      Meters
  ---------------------------------------------------------------------------------
  WS02001211           JUNCTION     0.70     0.74     5.58     0  02:20        0.74
  WS02001212           JUNCTION     0.42     0.47     5.53     0  02:19        0.47
  WS02001213           JUNCTION     0.66     0.74     5.50     0  02:19        0.74
  WS02003069           JUNCTION     0.48     0.60     5.18     0  02:18        0.60
  WS02003072           JUNCTION     0.55     0.65     5.02     0  02:19        0.65
  WS02003073           JUNCTION     0.33     0.40     4.47     0  02:19        0.40
  WS02003060           JUNCTION     0.43     0.53     5.46     0  02:18        0.53
  WS02003066           JUNCTION     0.25     0.33     5.88     0  02:17        0.33
  WS02003059           JUNCTION     0.72     0.80     5.49     0  02:18        0.80
  WS02003067           JUNCTION     0.61     0.75     6.07     0  02:17        0.75
  WS02004401           JUNCTION     0.73     0.98     6.98     0  02:13        0.98
  WS02004402           JUNCTION     0.76     1.00     6.96     0  02:15        1.00
  WS02004403           JUNCTION     0.78     1.00     6.93     0  02:13        1.00
  WS02004404           JUNCTION     0.85     1.06     6.91     0  02:15        1.06
  WS02004406           JUNCTION     0.85     1.03     6.86     0  02:13        1.03
  WS02004409           JUNCTION     0.55     0.76     6.53     0  02:16        0.76
  WS02004410           JUNCTION     0.57     0.77     6.49     0  02:16        0.77
  WS02004411           JUNCTION     0.58     0.77     6.45     0  02:16        0.77
  WS02004412           JUNCTION     0.59     0.77     6.41     0  02:16        0.77
  WS02004413           JUNCTION     0.75     0.92     6.39     0  02:17        0.92
  WS02004405           JUNCTION     0.85     1.05     6.90     0  02:15        1.05
  WS02006109           JUNCTION     0.82     1.11     7.72     0  02:14        1.10
  WS02006110           JUNCTION     0.80     1.02     7.60     0  02:10        1.01
  WS02006111           JUNCTION     0.24     0.37     7.07     0  02:14        0.36
  WS02006112           JUNCTION     0.91     1.21     7.09     0  02:15        1.20
  WS02006113           JUNCTION     0.38     0.51     7.40     0  02:12        0.51
  WS02006115           JUNCTION     0.63     0.90     7.04     0  02:15        0.90
  WS02006116           JUNCTION     0.71     0.97     7.01     0  02:15        0.97
  WS02006230           JUNCTION     0.81     1.17     7.92     0  02:12        1.17
  WS02006231           JUNCTION     0.55     0.83     7.95     0  02:12        0.83
  WS02006232           JUNCTION     0.69     0.95     7.99     0  02:12        0.94
  WS02006234           JUNCTION     0.61     0.86     8.02     0  02:12        0.86
  WS02006235           JUNCTION     0.64     0.89     8.05     0  02:10        0.88
  WS02006238           JUNCTION     0.66     0.91     8.05     0  02:14        0.91
  WS02006240           JUNCTION     0.55     0.79     8.08     0  02:13        0.79
  WS02006242           JUNCTION     0.60     0.84     8.11     0  02:00        0.84
  WS02006243           JUNCTION     0.48     0.71     8.13     0  03:10        0.71
  WS02006245           JUNCTION     0.45     0.68     8.17     0  03:10        0.68
  WS02006247           JUNCTION     0.47     0.69     8.19     0  03:11        0.69
  WS02006248           JUNCTION     0.41     0.62     8.21     0  03:10        0.62
  WS02006249           JUNCTION     0.44     0.63     8.23     0  03:10        0.63
  WS02006239           JUNCTION     0.61     0.86     8.07     0  02:12        0.85
  WS02006251           JUNCTION     0.42     0.66     8.33     0  03:10        0.66
  WS02006252           JUNCTION     0.34     0.59     8.83     0  03:18        0.59
  WS02006253           JUNCTION     0.45     0.69     8.33     0  03:10        0.69
  WS02006256           JUNCTION     1.10     1.22     8.15     0  02:12        1.22
  WS02004138           JUNCTION     0.16     0.17     7.42     0  00:24        0.17
  WS02004407           JUNCTION     0.25     0.33     6.64     0  02:16        0.33
  WS02006228           JUNCTION     0.84     1.18     7.83     0  02:10        1.17
  WS02006229           JUNCTION     0.82     1.18     7.88     0  02:12        1.18
  WS02006280           JUNCTION     0.08     0.19     8.46     0  02:12        0.19
  WS02006284           JUNCTION     0.39     0.55     8.95     0  02:12        0.55
  WS02006287           JUNCTION     0.12     0.28     9.24     0  02:11        0.28
  WSF200               JUNCTION     0.24     0.36     5.59     0  02:17        0.36
  HS02004901           JUNCTION     0.14     0.28    10.10     0  02:09        0.28
  HS02004881           JUNCTION     0.01     0.04     9.06     0  02:11        0.04
  HS02004876           JUNCTION     0.05     0.12     9.15     0  02:11        0.12
  HS02004870           JUNCTION     0.02     0.06     9.35     0  02:11        0.06
  HS02004862           JUNCTION     0.03     0.07     9.46     0  02:12        0.07
  HS02004856           JUNCTION     0.08     0.12     9.55     0  02:12        0.12
  HS02004852           JUNCTION     0.01     0.05     9.56     0  02:12        0.05
  HS02004848           JUNCTION     0.01     0.05     9.65     0  02:11        0.05
  HS02004842           JUNCTION     0.34     0.38     9.65     0  02:11        0.38
  HS02004837           JUNCTION     0.03     0.07     9.65     0  02:11        0.07
  HS02004830           JUNCTION     0.05     0.08     9.55     0  02:12        0.08
  HS02004824           JUNCTION     0.03     0.06     9.46     0  02:14        0.06
  HS02004817           JUNCTION     0.46     0.59     9.44     0  02:12        0.59
  HS02004807           JUNCTION     0.14     0.27     9.44     0  02:12        0.27
  HS02004802           JUNCTION     0.18     0.30     9.43     0  02:12        0.30
  HS02004799           JUNCTION     0.14     0.33     9.54     0  02:10        0.33
  HS02004792           JUNCTION     0.05     0.14     9.66     0  02:09        0.14
  HS02004788           JUNCTION     0.03     0.10    10.00     0  02:10        0.10
  HS02004785           JUNCTION     0.06     0.17    10.07     0  02:10        0.17
  HS02004777           JUNCTION     0.17     0.30    10.10     0  02:09        0.30
  HS02004770           JUNCTION     0.14     0.27    10.10     0  02:09        0.27
  HS02004480           JUNCTION     0.10     0.26     9.50     0  02:10        0.26
  HS02004479           JUNCTION     0.14     0.30     9.50     0  02:10        0.30
  HS02004478           JUNCTION     0.08     0.18     9.41     0  02:11        0.18
  YS02001745           JUNCTION     0.72     0.91     8.43     0  03:01        0.91
  YS02001748           JUNCTION     1.12     2.27     9.35     0  02:15        1.34
  YS02001751           JUNCTION     1.30     2.20     9.08     0  02:09        1.55
  YS02001754           JUNCTION     1.56     2.20     8.81     0  02:16        1.82
  YS02001762           JUNCTION     1.76     2.14     8.54     0  02:15        2.04
  YS02001765           JUNCTION     1.71     2.08     8.53     0  02:15        1.98
  YS02001767           JUNCTION     1.68     2.02     8.51     0  02:15        1.94
  YS02001770           JUNCTION     1.67     1.95     8.44     0  02:15        1.94
  YS02001774           JUNCTION     1.74     2.02     8.44     0  02:15        2.00
  YS02001779           JUNCTION     1.49     1.68     8.37     0  02:09        1.68
  YS02001882           JUNCTION     0.65     1.70     8.42     0  02:25        1.61
  YS02001884           JUNCTION     0.75     1.79     8.40     0  02:25        1.70
  YS02001759           JUNCTION     1.79     2.15     8.52     0  02:15        2.06
  YS02001887           JUNCTION     0.82     1.84     8.37     0  02:25        1.79
  YS02001890           JUNCTION     0.85     1.81     8.32     0  02:25        1.81
  YS02001898           JUNCTION     0.62     1.58     8.32     0  02:25        1.55
  YS02001901           JUNCTION     0.74     1.69     8.29     0  02:25        1.66
  YS02001904           JUNCTION     0.72     1.64     8.27     0  02:25        1.63
  YS02001907           JUNCTION     1.04     1.96     8.25     0  02:25        1.96
  YS02001910           JUNCTION     0.84     1.79     8.30     0  02:29        1.77
  YS02001915           JUNCTION     0.63     1.61     8.33     0  02:29        1.59
  YS02001918           JUNCTION     0.37     1.30     8.37     0  02:29        1.28
  YS02001619           JUNCTION     1.27     1.61     8.54     0  02:12        1.47
  YS02001629           JUNCTION     1.63     1.85     8.40     0  02:12        1.84
  YS02001641           JUNCTION     1.73     1.95     8.38     0  02:15        1.93
  YS02001644           JUNCTION     1.73     1.92     8.35     0  02:15        1.92
  YS02001652           JUNCTION     1.57     2.16     8.76     0  02:29        2.13
  YS02001655           JUNCTION     1.33     2.20     9.05     0  02:10        2.12
  YS02001920           JUNCTION     0.47     1.39     8.40     0  02:28        1.37
  YS02001923           JUNCTION     0.30     1.15     8.41     0  02:28        1.13
  YS02001926           JUNCTION     0.32     0.98     8.42     0  02:28        0.97
  YS02001929           JUNCTION     0.19     0.78     8.47     0  02:29        0.74
  YS02001658           JUNCTION     1.06     2.30     9.44     0  02:12        1.94
  YS02001661           JUNCTION     0.83     2.46     9.86     0  02:29        2.10
  YS02001664           JUNCTION     0.37     0.57     8.49     0  02:27        0.56
  YS02001622           JUNCTION     1.29     1.62     8.52     0  02:12        1.49
  YS02001633           JUNCTION     1.72     1.97     8.42     0  02:15        1.94
  YS02001649           JUNCTION     1.77     2.05     8.44     0  02:27        2.05
  YS02001757           JUNCTION     1.89     2.21     8.47     0  02:15        2.18
  YS02001895           JUNCTION     0.61     1.58     8.32     0  02:25        1.55
  YS02001625           JUNCTION     1.58     1.78     8.38     0  02:12        1.78
  YS02163301           JUNCTION     1.66     1.90     8.42     0  02:15        1.87
  YS02163601           JUNCTION     1.77     2.02     8.41     0  02:15        1.98
  YS02164001           JUNCTION     1.71     1.95     8.40     0  02:15        1.91
  YS02001647           JUNCTION     1.56     1.80     8.41     0  02:32        1.79
  YSB1154              JUNCTION     0.28     0.45     9.51     0  02:10        0.45
  YSB6556              JUNCTION     0.17     0.34     9.51     0  02:10        0.34
  YSB1174              JUNCTION     0.23     0.40     9.51     0  02:10        0.40
  YSB1171              JUNCTION     0.43     0.60     9.51     0  02:10        0.60
  YS02006553           JUNCTION     1.04     2.05     8.34     0  02:25        1.96
  YS02006561           JUNCTION     0.39     1.65     8.31     0  02:25        1.07
  YS02006556           JUNCTION     1.01     2.11     8.42     0  02:25        1.91
  YS02006558           JUNCTION     1.05     2.17     8.44     0  02:25        1.95
  YS02001783           JUNCTION     0.64     1.81     7.95     0  02:25        1.46
  YS02001784           JUNCTION     0.66     1.89     7.96     0  02:25        1.41
  YS02001786           JUNCTION     0.59     2.23     8.26     0  02:25        1.25
  YS02001788           JUNCTION     0.53     2.02     8.00     0  02:25        1.13
  YS02001790           JUNCTION     0.67     1.96     7.60     0  02:25        1.29
  YS02001791           JUNCTION     0.66     1.80     7.27     0  02:25        1.27
  YS02001793           JUNCTION     0.93     1.82     6.65     0  02:25        1.80
  WS02004139           JUNCTION     0.65     0.68     5.59     0  02:21        0.68
  WSC                  OUTFALL      0.33     0.40     1.07     0  02:20        0.40
  3                    OUTFALL      0.12     0.21     6.21     0  02:12        0.21
  4                    OUTFALL      0.02     0.13     7.13     0  03:10        0.13
  5                    OUTFALL      0.00     0.00     5.00     0  00:00        0.00
  JK-storage           STORAGE      3.36     5.80     6.60     0  02:26        5.80
  CC-storage           STORAGE      1.11     1.40     8.40     0  03:02        1.40
  XR-storage           STORAGE      6.87     7.72     5.72     0  02:32        7.72
  
  
  *******************
  Node Inflow Summary
  *******************
  
  -------------------------------------------------------------------------------------------------
                                  Maximum  Maximum                  Lateral       Total        Flow
                                  Lateral    Total  Time of Max      Inflow      Inflow     Balance
                                   Inflow   Inflow   Occurrence      Volume      Volume       Error
  Node                 Type           LPS      LPS  days hr:min    10^6 ltr    10^6 ltr     Percent
  -------------------------------------------------------------------------------------------------
  WS02001211           JUNCTION      7.35   293.51     0  03:16       0.212        8.07       0.187
  WS02001212           JUNCTION      0.00   294.43     0  03:16           0        8.06       0.103
  WS02001213           JUNCTION      0.00   295.16     0  03:15           0        8.05       0.160
  WS02003069           JUNCTION      0.32   977.52     0  02:18     0.00922        17.8       0.101
  WS02003072           JUNCTION      0.00   977.32     0  02:18           0        17.7       0.138
  WS02003073           JUNCTION      1.82   979.04     0  02:19      0.0524        17.8       0.151
  WS02003060           JUNCTION     16.53   977.53     0  02:17       0.476        17.8       0.093
  WS02003066           JUNCTION      0.00   668.94     0  02:17           0        9.29       0.040
  WS02003059           JUNCTION      0.00   296.45     0  03:15           0        8.04       0.311
  WS02003067           JUNCTION      0.00   668.83     0  02:17           0         9.3       0.088
  WS02004401           JUNCTION      0.00   671.54     0  02:14           0        9.49       0.176
  WS02004402           JUNCTION      0.00   670.22     0  02:13           0        9.47       0.171
  WS02004403           JUNCTION      0.00   669.84     0  02:15           0        9.45       0.159
  WS02004404           JUNCTION      0.16   669.87     0  02:15     0.00467        9.44       0.125
  WS02004406           JUNCTION      0.00   669.76     0  02:13           0        9.42       0.306
  WS02004409           JUNCTION      0.00   669.41     0  02:16           0        9.38       0.130
  WS02004410           JUNCTION      0.00   669.20     0  02:16           0        9.37       0.154
  WS02004411           JUNCTION      0.00   668.99     0  02:16           0        9.36       0.164
  WS02004412           JUNCTION      0.00   669.04     0  02:16           0        9.34       0.184
  WS02004413           JUNCTION      0.00   668.94     0  02:16           0        9.32       0.281
  WS02004405           JUNCTION      0.04   669.79     0  02:15      0.0011        9.43       0.186
  WS02006109           JUNCTION      1.23   657.41     0  02:11      0.0354         9.5       0.160
  WS02006110           JUNCTION      0.00   657.40     0  02:12           0        9.48       0.140
  WS02006111           JUNCTION      0.00   690.79     0  02:12           0        9.46       0.020
  WS02006112           JUNCTION     14.08   673.41     0  02:11      0.0762        9.54       0.251
  WS02006113           JUNCTION      0.00   658.90     0  02:10           0        9.47       0.052
  WS02006115           JUNCTION      0.00   673.54     0  02:14           0        9.51       0.149
  WS02006116           JUNCTION      0.00   672.26     0  02:14           0         9.5       0.135
  WS02006230           JUNCTION     10.28   385.24     0  03:21       0.296        7.24       0.154
  WS02006231           JUNCTION      0.00   373.80     0  03:21           0        6.95      -0.015
  WS02006232           JUNCTION      0.00   373.77     0  03:21           0        6.95       0.117
  WS02006234           JUNCTION      0.00   373.57     0  03:21           0        6.95       0.001
  WS02006235           JUNCTION      0.00   373.54     0  03:21           0        6.99       0.084
  WS02006238           JUNCTION      0.00   286.86     0  03:21           0         4.7       0.040
  WS02006240           JUNCTION      0.00   286.66     0  03:21           0        4.68       0.033
  WS02006242           JUNCTION      0.00   286.60     0  03:21           0        4.67       0.047
  WS02006243           JUNCTION      0.00   285.37     0  03:20           0        4.66      -0.042
  WS02006245           JUNCTION      0.00   284.98     0  03:20           0        4.66       0.037
  WS02006247           JUNCTION      0.00   284.68     0  03:20           0        4.66       0.008
  WS02006248           JUNCTION      0.00   284.21     0  03:20           0        4.66      -0.015
  WS02006249           JUNCTION      0.00   433.36     0  03:10           0        5.06       0.035
  WS02006239           JUNCTION      0.00   286.79     0  03:21           0        4.69       0.035
  WS02006251           JUNCTION      0.08   433.69     0  03:10     0.00222        5.06       0.000
  WS02006252           JUNCTION      0.00   400.00     0  03:10           0        4.61       0.002
  WS02006253           JUNCTION      1.84    79.83     0  02:11     0.00983       0.444      -0.062
  WS02006256           JUNCTION      0.00   600.00     0  01:46           0         7.9       0.022
  WS02004138           JUNCTION      0.00   285.00     0  00:40           0        7.87       0.001
  WS02004407           JUNCTION      0.00   669.70     0  02:16           0        9.39       0.055
  WS02006228           JUNCTION      0.00   656.28     0  02:12           0        9.47       0.097
  WS02006229           JUNCTION      0.00   654.84     0  02:12           0        9.48       0.090
  WS02006280           JUNCTION      0.00   371.32     0  02:12           0        2.25       0.003
  WS02006284           JUNCTION      0.10   371.31     0  02:11     0.00275        2.25       0.039
  WS02006287           JUNCTION      0.00   371.21     0  02:11           0        2.25       0.032
  WSF200               JUNCTION      0.00   668.99     0  02:17           0        9.28       0.037
  HS02004901           JUNCTION     16.97    16.97     0  02:08      0.0916      0.0919       1.952
  HS02004881           JUNCTION      7.37    78.04     0  02:11        0.04       0.434       0.083
  HS02004876           JUNCTION     13.80    70.80     0  02:11      0.0769       0.395       0.136
  HS02004870           JUNCTION     13.84    57.08     0  02:11      0.0757       0.318       0.034
  HS02004862           JUNCTION     13.52    43.42     0  02:11      0.0819       0.242       0.070
  HS02004856           JUNCTION     10.40    29.96     0  02:11       0.057       0.162       0.897
  HS02004852           JUNCTION      0.00    19.73     0  02:11           0       0.105       0.052
  HS02004848           JUNCTION     30.48    30.48     0  02:12       0.183       0.183       0.025
  HS02004842           JUNCTION      0.00    11.19     0  02:26           0      0.0908      16.714
  HS02004837           JUNCTION     30.18    40.73     0  02:11       0.315       0.393       0.200
  HS02004830           JUNCTION      0.15    40.86     0  02:11     0.00432       0.383       0.323
  HS02004824           JUNCTION     38.00    78.17     0  02:13       0.239       0.621       0.087
  HS02004817           JUNCTION      0.60    78.76     0  02:14      0.0173       0.638       2.684
  HS02004807           JUNCTION     25.53   103.67     0  02:13       0.139        0.76       0.572
  HS02004802           JUNCTION      0.00   103.86     0  02:14           0       0.757       0.524
  HS02004799           JUNCTION     20.54   225.54     0  02:09       0.113        1.27       0.210
  HS02004792           JUNCTION     86.43   205.05     0  02:09       0.477        1.16       0.035
  HS02004788           JUNCTION     30.11   118.92     0  02:10       0.205       0.684       0.056
  HS02004785           JUNCTION      0.15    88.90     0  02:09     0.00432        0.48       0.101
  HS02004777           JUNCTION      0.03    88.83     0  02:09    0.000864       0.481       1.091
  HS02004770           JUNCTION     72.07    88.93     0  02:08       0.392       0.482       0.645
  HS02004480           JUNCTION      0.00   268.20     0  02:10           0         1.5       0.077
  HS02004479           JUNCTION      0.00    42.81     0  02:11           0       0.245       0.300
  HS02004478           JUNCTION      0.00   371.20     0  02:11           0        2.25       0.014
  YS02001745           JUNCTION    324.54   431.93     0  02:14        2.94        2.95       0.392
  YS02001748           JUNCTION      0.04   634.44     0  02:15      0.0013        2.93       0.791
  YS02001751           JUNCTION      0.01   390.68     0  02:09    0.000317         2.9       0.796
  YS02001754           JUNCTION      0.26   331.64     0  03:01     0.00749        2.89       0.862
  YS02001762           JUNCTION      0.00   346.58     0  02:28           0        1.88       1.124
  YS02001765           JUNCTION      0.00   346.87     0  02:28           0        1.89       1.295
  YS02001767           JUNCTION      0.54   346.78     0  02:28      0.0154        1.91       1.896
  YS02001770           JUNCTION    387.13   529.65     0  03:00        3.27        3.46       0.919
  YS02001774           JUNCTION      0.00   529.98     0  03:00           0        1.72       1.471
  YS02001779           JUNCTION      0.01   530.06     0  03:00    0.000144        1.69       0.920
  YS02001882           JUNCTION      0.00    14.02     0  02:00           0      0.0196      13.473
  YS02001884           JUNCTION      0.00    29.01     0  02:00           0       0.055      12.405
  YS02001759           JUNCTION    366.66   681.88     0  02:28        3.01        4.68       0.487
  YS02001887           JUNCTION    448.39   448.81     0  02:47        3.45        3.48       0.242
  YS02001890           JUNCTION      0.00   448.97     0  02:46           0        3.43       0.268
  YS02001898           JUNCTION      0.00   448.72     0  02:46           0        3.42       0.092
  YS02001901           JUNCTION      0.00   448.77     0  02:46           0        3.41       0.203
  YS02001904           JUNCTION      0.00   448.86     0  02:46           0        3.41       0.185
  YS02001907           JUNCTION      0.00   954.47     0  02:29           0        7.65       0.316
  YS02001910           JUNCTION      0.00   525.95     0  02:29           0        4.25       0.272
  YS02001915           JUNCTION    281.04   525.83     0  02:29        2.45        4.28       0.146
  YS02001918           JUNCTION      0.00   279.09     0  02:29           0        1.84       0.106
  YS02001619           JUNCTION    276.41   276.41     0  03:01        2.44        2.44       0.494
  YS02001629           JUNCTION      0.00   216.05     0  02:21           0        1.74       1.656
  YS02001641           JUNCTION      0.00   454.40     0  02:21           0        4.55       0.462
  YS02001644           JUNCTION    310.21  1302.94     0  03:00        2.83        10.2       0.255
  YS02001652           JUNCTION      0.00   367.94     0  02:40           0        2.52       0.919
  YS02001655           JUNCTION      0.15   394.69     0  02:07     0.00443        2.55       0.998
  YS02001920           JUNCTION      2.87   278.95     0  02:29      0.0827        1.84       0.163
  YS02001923           JUNCTION      0.04   275.82     0  02:30     0.00109        1.75       0.047
  YS02001926           JUNCTION      0.05   221.36     0  02:30      0.0015        1.74       0.184
  YS02001929           JUNCTION    155.38   155.38     0  03:01        1.73        1.73       0.032
  YS02001658           JUNCTION      0.00   664.66     0  02:12           0        2.57       0.909
  YS02001661           JUNCTION      0.00   698.61     0  02:27           0        3.31      -0.079
  YS02001664           JUNCTION    327.84   354.65     0  02:27        2.57        3.31       0.226
  YS02001622           JUNCTION      0.00   276.61     0  03:00           0        2.43       1.319
  YS02001633           JUNCTION    316.87   454.45     0  02:21        2.92        4.61       0.699
  YS02001649           JUNCTION      0.00   967.09     0  02:22           0        5.61       0.659
  YS02001757           JUNCTION      0.00  1845.33     0  02:22           0        9.98       0.931
  YS02001895           JUNCTION      0.00   448.76     0  02:46           0        3.42       0.153
  YS02001625           JUNCTION      0.00   276.46     0  03:01           0         2.4       1.631
  YS02163301           JUNCTION      0.00   226.44     0  02:11           0        1.72       1.400
  YS02163601           JUNCTION      0.11   454.51     0  02:21     0.00317        4.57       0.654
  YS02164001           JUNCTION      0.00   454.46     0  02:21           0        4.55       0.440
  YS02001647           JUNCTION      0.00   689.41     0  02:21           0        4.64       0.611
  YSB1154              JUNCTION     24.57    24.57     0  02:09       0.137       0.138       1.061
  YSB6556              JUNCTION      0.00    24.54     0  02:09           0       0.138       0.910
  YSB1174              JUNCTION     18.45    18.45     0  02:08      0.0993      0.0998       1.303
  YSB1171              JUNCTION      0.00    42.81     0  02:10           0       0.244       2.667
  YS02006553           JUNCTION      0.00   701.90     0  02:25           0        6.97       0.227
  YS02006561           JUNCTION      0.00  1058.08     0  02:25           0        10.1       0.006
  YS02006556           JUNCTION      0.00   701.65     0  02:25           0        6.98       0.162
  YS02006558           JUNCTION    395.55  1058.41     0  02:25        3.17        10.1       0.053
  YS02001783           JUNCTION      0.00  1049.46     0  02:25           0        10.1       0.023
  YS02001784           JUNCTION      1.06  1050.58     0  02:25      0.0305        10.1       0.038
  YS02001786           JUNCTION      0.06  1050.49     0  02:25     0.00162        10.1       0.035
  YS02001788           JUNCTION      0.07  1042.03     0  02:24     0.00204        10.1       0.018
  YS02001790           JUNCTION      0.15  1035.27     0  02:24     0.00446        10.1       0.028
  YS02001791           JUNCTION      0.00  1095.22     0  02:23           0        10.1       0.009
  YS02001793           JUNCTION      0.00  1021.50     0  02:22           0        10.1       0.000
  WS02004139           JUNCTION      0.32   285.32     0  00:13     0.00924        7.87       0.184
  WSC                  OUTFALL       0.00   978.92     0  02:20           0        17.7       0.000
  3                    OUTFALL       0.00   534.45     0  02:12           0        5.58       0.000
  4                    OUTFALL       0.00   161.29     0  03:10           0       0.398       0.000
  5                    OUTFALL       0.00     0.00     0  00:00           0           0       0.000 ltr
  JK-storage           STORAGE       0.00   985.69     0  02:21           0        10.3      -2.866
  CC-storage           STORAGE       0.00  1845.36     0  02:22           0        8.48       0.774
  XR-storage           STORAGE     745.75   745.75     0  03:01        10.9        11.5       0.001
  
  
  **********************
  Node Surcharge Summary
  **********************
  
  Surcharging occurs when water rises above the top of the highest conduit.
  ---------------------------------------------------------------------
                                               Max. Height   Min. Depth
                                   Hours       Above Crown    Below Rim
  Node                 Type      Surcharged         Meters       Meters
  ---------------------------------------------------------------------
  WS02004403           JUNCTION        0.02          0.002        2.028
  WS02004404           JUNCTION        1.14          0.063        2.717
  WS02004406           JUNCTION        0.83          0.035        2.415
  WS02004405           JUNCTION        1.01          0.050        2.750
  WS02006109           JUNCTION        1.92          0.285        1.535
  WS02006110           JUNCTION        1.43          0.110        1.740
  WS02006112           JUNCTION        1.58          0.209        1.471
  WS02006230           JUNCTION        1.07          0.092        1.478
  WS02006231           JUNCTION        1.30          0.119        1.411
  WS02006232           JUNCTION        1.80          0.252        1.228
  WS02006234           JUNCTION        1.56          0.140        1.100
  WS02006235           JUNCTION        1.68          0.175        1.115
  WS02006238           JUNCTION        1.71          0.190        1.240
  WS02006240           JUNCTION        1.53          0.081        1.309
  WS02006242           JUNCTION        1.62          0.111        0.709
  WS02006243           JUNCTION        0.04          0.003        0.767
  WS02006239           JUNCTION        1.59          0.117        1.173
  WS02006252           JUNCTION        0.42          0.193        0.907
  WS02006228           JUNCTION        1.90          0.345        1.855
  YS02001748           JUNCTION        5.68          1.190        0.000
  YS02001751           JUNCTION        5.79          1.200        0.000
  YS02001754           JUNCTION        5.95          1.150        0.000
  YS02001762           JUNCTION        6.14          1.136        0.014
  YS02001765           JUNCTION        6.12          1.084        0.016
  YS02001767           JUNCTION        6.11          1.018        0.012
  YS02001770           JUNCTION        6.10          0.920        0.000
  YS02001774           JUNCTION        6.14          1.016        0.034
  YS02001779           JUNCTION        5.95          0.680        0.000
  YS02001882           JUNCTION        1.28          0.702        0.128
  YS02001884           JUNCTION        1.32          0.727        0.143
  YS02001759           JUNCTION        6.16          1.151        0.059
  YS02001887           JUNCTION        1.43          0.786        0.164
  YS02001890           JUNCTION        1.47          0.760        0.000
  YS02001898           JUNCTION        1.21          0.550        0.190
  YS02001901           JUNCTION        1.38          0.685        0.185
  YS02001904           JUNCTION        1.35          0.640        0.210
  YS02001907           JUNCTION        1.98          0.950        0.000
  YS02001910           JUNCTION        1.53          0.790        0.310
  YS02001915           JUNCTION        1.25          0.614        0.386
  YS02001918           JUNCTION        0.95          0.303        0.507
  YS02001619           JUNCTION        5.82          0.610        0.000
  YS02001629           JUNCTION        5.84          0.470        0.000
  YS02001641           JUNCTION        6.13          0.947        0.153
  YS02001644           JUNCTION        6.13          0.920        0.000
  YS02001652           JUNCTION        5.99          1.130        0.000
  YS02001655           JUNCTION        5.83          1.200        0.000
  YS02001920           JUNCTION        0.99          0.389        0.751
  YS02001658           JUNCTION        5.71          1.300        0.000
  YS02001661           JUNCTION        0.28          1.390        0.000
  YS02001622           JUNCTION        5.85          0.620        0.000
  YS02001633           JUNCTION        6.12          0.949        0.111
  YS02001649           JUNCTION        6.15          1.050        0.000
  YS02001757           JUNCTION        6.21          1.210        0.000
  YS02001895           JUNCTION        1.23          0.577        0.173
  YS02001625           JUNCTION        6.08          0.780        0.000
  YS02163301           JUNCTION        6.11          0.902        0.128
  YS02163601           JUNCTION        6.14          1.016        0.064
  YS02164001           JUNCTION        6.13          0.945        0.155
  YS02001647           JUNCTION        6.04          0.804        0.096
  YS02006553           JUNCTION        2.04          1.052        0.138
  YS02006561           JUNCTION        1.07          0.849        0.301
  YS02006556           JUNCTION        1.76          1.073        0.277
  YS02006558           JUNCTION        1.71          1.070        0.330
  YS02001783           JUNCTION        1.69          1.007        0.593
  YS02001784           JUNCTION        1.71          1.091        0.399
  YS02001786           JUNCTION        1.52          1.430        0.000
  YS02001788           JUNCTION        1.50          1.219        0.261
  YS02001790           JUNCTION        2.91          1.157        0.000
  YS02001791           JUNCTION        3.03          1.002        0.918
  YS02001793           JUNCTION        3.23          0.820        1.780
  
  
  *********************
  Node Flooding Summary
  *********************
  
  Flooding refers to all water that overflows a node, whether it ponds or not.
  --------------------------------------------------------------------------
                                                             Total   Maximum
                                 Maximum   Time of Max       Flood    Ponded
                        Hours       Rate    Occurrence      Volume     Depth
  Node                 Flooded       LPS   days hr:min    10^6 ltr    Meters
  --------------------------------------------------------------------------
  YS02001748              0.01    281.94      0  02:15       0.001     0.000
  YS02001751              0.01    164.37      0  02:09       0.000     0.000
  YS02001754              0.01      6.37      0  02:16       0.000     0.000
  YS02001770              0.01      7.70      0  02:15       0.000     0.000
  YS02001779              2.92    529.97      0  03:00       1.671     0.000
  YS02001890              0.01     15.26      0  02:26       0.000     0.000
  YS02001907              0.82    361.66      0  02:29       0.669     0.000
  YS02001619              0.01     32.26      0  02:12       0.000     0.000
  YS02001629              0.01     39.45      0  02:12       0.000     0.000
  YS02001644              5.48   1302.84      0  03:00       8.467     0.000
  YS02001652              0.01     23.17      0  02:34       0.000     0.000
  YS02001655              0.01    128.40      0  02:10       0.000     0.000
  YS02001658              0.01    191.06      0  02:12       0.000     0.000
  YS02001661              0.01    193.55      0  02:32       0.001     0.000
  YS02001622              0.01     33.56      0  02:13       0.000     0.000
  YS02001649              0.12     52.77      0  02:34       0.006     0.000
  YS02001757              0.01     20.27      0  02:15       0.000     0.000
  YS02001625              1.40    217.09      0  03:01       0.628     0.000
  YS02001786              0.01     48.70      0  02:25       0.000     0.000
  YS02001790              0.01     63.09      0  02:25       0.000     0.000
  JK-storage              2.59    547.62      0  03:30       2.609     0.000
  XR-storage              4.04    460.74      0  03:01       2.676     0.000
  
  
  **********************
  Storage Volume Summary
  **********************
  
  --------------------------------------------------------------------------------------------------
                         Average     Avg  Evap Exfil       Maximum     Max    Time of Max    Maximum
                          Volume    Pcnt  Pcnt  Pcnt        Volume    Pcnt     Occurrence    Outflow
  Storage Unit           1000 m3    Full  Loss  Loss       1000 m3    Full    days hr:min        LPS
  --------------------------------------------------------------------------------------------------
  JK-storage               0.169      58     0     0         0.291     100       0  02:26     600.00
  CC-storage               3.094      20     0     0         3.891      25       0  03:02     400.00
  XR-storage               0.825      89     0     0         0.926     100       0  02:32     285.00
  
  
  ***********************
  Outfall Loading Summary
  ***********************
  
  -----------------------------------------------------------
                         Flow       Avg       Max       Total
                         Freq      Flow      Flow      Volume
  Outfall Node           Pcnt       LPS       LPS    10^6 ltr
  -----------------------------------------------------------
  WSC                  100.00    696.94    978.92      17.744
  3                     95.89    264.83    534.45       5.585
  4                     29.66     67.44    161.29       0.398
  5                      0.00      0.00      0.00       0.000
  -----------------------------------------------------------
  System                56.39   1029.21   1580.51      23.726
  
  
  ********************
  Link Flow Summary
  ********************
  
  -----------------------------------------------------------------------------
                                 Maximum  Time of Max   Maximum    Max/    Max/
                                  |Flow|   Occurrence   |Veloc|    Full    Full
  Link                 Type          LPS  days hr:min     m/sec    Flow   Depth
  -----------------------------------------------------------------------------
  WS02003066WSF200     CONDUIT    668.99     0  02:17      2.81    0.11    0.26
  WS02006287WS02006284 CONDUIT    371.21     0  02:11      1.97    0.17    0.29
  WS02006284WS02006280 CONDUIT    371.32     0  02:12      2.21    0.16    0.27
  WS02006280WS02006229 CONDUIT    371.32     0  02:12      3.56    0.08    0.19
  WS02006229WS02006228 CONDUIT    656.28     0  02:12      1.31    2.17    1.00
  WS02006256WS02006235 CONDUIT    150.95     0  01:34      2.16    1.60    1.00
  WS02006253WS02006251 CONDUIT     79.84     0  02:11      0.51    0.24    0.95
  WS02006252WS02006251 CONDUIT    400.28     0  03:16      3.19    1.47    1.00
  WS02006251WS02006249 CONDUIT    433.36     0  03:10      1.17    1.25    0.92
  WS02006249WS02006248 CONDUIT    284.21     0  03:20      1.07    1.56    0.88
  WS02006248WS02006247 CONDUIT    284.68     0  03:20      1.04    0.62    0.93
  WS02006247WS02006245 CONDUIT    284.98     0  03:20      1.00    2.26    0.97
  WS02006245WS02006243 CONDUIT    285.37     0  03:20      1.04    0.84    0.99
  WS02006243WS02006242 CONDUIT    286.60     0  03:21      0.84    0.61    1.00
  WS02006242WS02006240 CONDUIT    286.66     0  03:21      0.74    1.14    1.00
  WS02006240WS02006239 CONDUIT    286.79     0  03:21      0.75    0.90    1.00
  WS02006239WS02006238 CONDUIT    286.86     0  03:21      0.75    0.92    1.00
  WS02006238WS02006235 CONDUIT    286.88     0  03:21      0.75    0.64    1.00
  WS02006235WS02006234 CONDUIT    373.57     0  03:21      0.97    3.94    1.00
  WS02006234WS02006232 CONDUIT    373.77     0  03:21      0.97    0.76    1.00
  WS02006232WS02006231 CONDUIT    373.80     0  03:21      0.99    0.78    1.00
  WS02006231WS02006230 CONDUIT    374.96     0  03:21      1.29    5.69    1.00
  WS02006230WS02006229 CONDUIT    386.98     0  03:21      1.01    8.61    1.00
  WS02006228WS02006109 CONDUIT    656.18     0  02:11      1.31    2.87    1.00
  WS02006116WS02004401 CONDUIT    671.54     0  02:14      0.86    0.93    0.98
  WS02006115WS02006116 CONDUIT    672.26     0  02:14      0.90    0.86    0.90
  WS02006113WS02006111 CONDUIT    690.79     0  02:12      2.59    0.83    0.54
  WS02006112WS02006115 CONDUIT    673.54     0  02:14      0.88    0.40    0.94
  WS02006111WS02006112 CONDUIT    659.82     0  02:14      1.72    0.31    0.72
  WS02006110WS02006113 CONDUIT    658.90     0  02:10      1.50    0.60    0.82
  WS02006109WS02006110 CONDUIT    657.40     0  02:12      1.31    1.26    1.00
  WS02004411WS02004412 CONDUIT    669.04     0  02:16      1.04    0.95    0.77
  WS02004401WS02004402 CONDUIT    670.22     0  02:13      0.86    0.80    0.99
  WS02004413WS02003067 CONDUIT    668.83     0  02:17      1.26    0.29    0.64
  WS02004412WS02004413 CONDUIT    668.94     0  02:16      0.95    0.45    0.84
  WS02004410WS02004411 CONDUIT    668.99     0  02:16      1.04    0.91    0.77
  WS02004409WS02004410 CONDUIT    669.20     0  02:16      1.04    0.87    0.76
  WS02004407WS02004409 CONDUIT    669.41     0  02:16      1.53    0.24    0.54
  WS02004406WS02004407 CONDUIT    669.70     0  02:16      1.21    0.30    0.67
  WS02004405WS02004406 CONDUIT    669.76     0  02:13      0.85    1.32    1.00
  WS02004404WS02004405 CONDUIT    669.75     0  02:15      0.97    6.56    1.00
  WS02004403WS02004404 CONDUIT    669.71     0  02:15      0.85    0.48    1.00
  WS02004402WS02004403 CONDUIT    669.84     0  02:15      0.87    0.96    1.00
  WS02004139WS02001211 CONDUIT    286.17     0  03:16      0.57    0.36    0.55
  WS02004138WS02004139 CONDUIT    285.00     0  00:13      2.11    0.06    0.40
  WS02003067WS02003066 CONDUIT    668.94     0  02:17      1.36    0.21    0.45
  WS02001213WS02003059 CONDUIT    296.45     0  03:15      0.59    0.49    0.76
  WS02001212WS02001213 CONDUIT    295.16     0  03:15      1.19    0.46    0.44
  WS02001211WS02001212 CONDUIT    294.43     0  03:16      0.67    0.23    0.60
  WS02003072WS02003073 CONDUIT    977.22     0  02:19      1.75    2.11    0.49
  WS02003069WS02003072 CONDUIT    977.32     0  02:18      1.64    0.47    0.52
  WS02003060WS02003069 CONDUIT    977.20     0  02:18      1.88    0.38    0.47
  WS02003059WS02003060 CONDUIT    298.05     0  03:14      0.82    0.19    0.66
  HS02004901HS02004770 CONDUIT     16.89     0  02:09      0.06    0.06    0.39
  HS02004876HS02004881 CONDUIT     70.80     0  02:11      0.92    0.75    0.11
  HS02004870HS02004876 CONDUIT     57.07     0  02:11      0.63    0.04    0.13
  HS02004842HS02004848 CONDUIT     11.19     0  02:26      0.05    0.01    0.30
  HS02004837HS02004842 CONDUIT     11.29     0  02:30      0.42    0.01    0.32
  HS02004830HS02004837 CONDUIT     40.71     0  02:11      0.55    0.04    0.11
  HS02004824HS02004830 CONDUIT     40.86     0  02:12      0.58    0.05    0.10
  HS02004817HS02004824 CONDUIT     78.16     0  02:14      0.24    0.04    0.47
  HS02004770HS02004777 CONDUIT     88.80     0  02:09      0.31    0.16    0.40
  HS02004799HS02004480 CONDUIT    225.48     0  02:09      0.77    0.28    0.42
  HS02004792HS02004799 CONDUIT    205.02     0  02:09      0.88    0.13    0.33
  HS02004788HS02004792 CONDUIT    118.89     0  02:10      1.01    0.08    0.17
  HS02004785HS02004788 CONDUIT     88.88     0  02:10      0.65    0.67    0.19
  HS02004777HS02004785 CONDUIT     88.75     0  02:09      0.38    0.11    0.33
  HS02004480HS02004478 CONDUIT    268.19     0  02:10      1.20    1.13    0.32
  HS02004479HS02004480 CONDUIT     42.91     0  02:12      0.29    0.04    0.40
  HS02004862HS02004870 CONDUIT     43.41     0  02:12      0.63    0.05    0.10
  HS02004848HS02004852 CONDUIT     19.73     0  02:11      0.43    0.02    0.06
  HS02004856HS02004862 CONDUIT     29.94     0  02:12      0.47    0.03    0.09
  HS02004852HS02004856 CONDUIT     19.71     0  02:12      0.23    0.02    0.12
  HS02004802HS02004478 CONDUIT    104.14     0  02:14      0.44    0.09    0.34
  HS02004478WS02006287 CONDUIT    371.21     0  02:11      1.67    0.10    0.25
  HS02004817HS02004807 CONDUIT     79.11     0  02:15      0.19    0.05    0.61
  HS02004807HS02004802 CONDUIT    103.86     0  02:14      0.37    0.20    0.40
  YS02001759YS02001757 CONDUIT    681.85     0  02:28      0.87    0.48    1.00
  YS02001762YS02001759 CONDUIT    346.72     0  02:28      0.44    0.40    1.00
  YS02001765YS02001762 CONDUIT    346.58     0  02:28      0.44    0.32    1.00
  YS02001770YS02001767 CONDUIT    346.24     0  02:28      0.44    1.37    1.00
  YS02001774YS02001770 CONDUIT    529.98     0  03:00      0.67    0.34    1.00
  YS02001779YS02001774 CONDUIT    530.05     0  03:00      0.67    0.27    1.00
  YS02001649YS02001757 CONDUIT    967.00     0  02:22      1.23    0.59    1.00
  YS02001767YS02001765 CONDUIT    346.87     0  02:28      0.44    0.44    1.00
  YS02006561YS02001783 CONDUIT   1049.46     0  02:25      2.26    0.54    1.00
  YS02001783YS02001784 CONDUIT   1049.52     0  02:25      2.09    1.45    1.00
  YS02001784YS02001785 CONDUIT   1050.44     0  02:25      2.10    2.44    1.00
  YS02001788YS02001790 CONDUIT   1035.12     0  02:24      2.55    0.76    1.00
  YS02001790YS02001791 CONDUIT   1095.22     0  02:23      3.23    1.19    1.00
  YS02001791YS02001793 CONDUIT   1021.50     0  02:22      6.23    0.44    1.00
  YS02001910YS02001907 CONDUIT    525.86     0  02:29      0.67    0.30    1.00
  YS02001786YS02001788 CONDUIT   1041.96     0  02:24      2.36    2.01    1.00
  YS02001915YS02001910 CONDUIT    525.95     0  02:29      0.67    0.26    1.00
  YS02001918YS02001915 CONDUIT    279.67     0  02:29      0.44    0.15    1.00
  YS02001923YS02001920 CONDUIT    276.08     0  02:29      0.74    0.12    1.00
  YS02001926YS02001923 CONDUIT    275.79     0  02:30      0.83    0.39    0.96
  YS02001929YS02001926 CONDUIT    221.31     0  02:30      0.89    0.11    0.86
  YS02001920YS02001918 CONDUIT    279.09     0  02:29      0.72    0.27    1.00
  YS02001629YS02163301 CONDUIT    226.44     0  02:11      0.29    0.28    1.00
  YS02001619YS02001622 CONDUIT    276.61     0  03:00      0.67    0.41    1.00
  YS02001622YS02001625 CONDUIT    276.46     0  03:01      0.35    0.15    1.00
  YS02001625YS02001629 CONDUIT    216.05     0  02:21      0.28    0.10    1.00
  YS02163301YS02001633 CONDUIT    226.55     0  02:11      0.29    0.21    1.00
  YS02163601YS02164001 CONDUIT    454.46     0  02:21      0.58    0.40    1.00
  YS02164001YS02001641 CONDUIT    454.40     0  02:21      0.58    0.62    1.00
  YS02001641YS02001644 CONDUIT    454.31     0  02:21      0.58    1.47    1.00
  YS02001647YS02001649 CONDUIT    689.34     0  02:21      0.88    0.36    1.00
  YS02006553YS02006556 CONDUIT    701.65     0  02:25      0.89    0.60    1.00
  YS02006556YS02006558 CONDUIT    701.88     0  02:25      0.89    0.55    1.00
  YSB6556YSB1171       CONDUIT     24.63     0  02:12      0.09    0.03    0.67
  YS02001907YS02006553 CONDUIT    701.90     0  02:25      0.78    0.83    1.00
  YS02006558YS02006561 CONDUIT   1058.08     0  02:25      3.74    2.34    1.00
  YS02001633YS02163601 CONDUIT    454.40     0  02:21      0.58    0.48    1.00
  YS02001644YS02001647 CONDUIT    689.41     0  02:21      0.88    0.40    1.00
  YS02001745YS02001748 CONDUIT    634.40     0  02:15      1.56    0.24    0.96
  YS02001748YS02001751 CONDUIT    390.67     0  02:09      1.13    0.20    1.00
  YS02001751YS02001754 CONDUIT    331.38     0  03:01      0.95    0.16    1.00
  YS02001754YS02001757 CONDUIT    331.58     0  03:01      0.42    0.13    1.00
  YS02001882YS02001884 CONDUIT     14.02     0  02:00      0.13    0.02    1.00
  YS02001884YS02001887 CONDUIT     29.01     0  02:00      0.09    0.04    1.00
  YS02001890YS02001895 CONDUIT    448.76     0  02:46      0.57    0.21    1.00
  YS02001895YS02001898 CONDUIT    448.72     0  02:46      0.60    0.78    1.00
  YS02001898YS02001901 CONDUIT    448.77     0  02:46      0.57    0.29    1.00
  YS02001901YS02001904 CONDUIT    448.86     0  02:46      0.57    0.70    1.00
  YS02001904YS02001907 CONDUIT    448.86     0  02:46      0.57    0.16    1.00
  YS02001887YS02001890 CONDUIT    448.97     0  02:46      0.57    0.77    1.00
  YS02001652YS02001649 CONDUIT    368.07     0  02:38      0.59    0.18    1.00
  YS02001655YS02001652 CONDUIT    367.94     0  02:40      1.03    0.18    1.00
  YS02001658YS02001655 CONDUIT    394.54     0  02:07      1.30    0.17    1.00
  YS02001661YS02001658 CONDUIT    664.66     0  02:12      1.64    0.26    1.00
  YS02001664YS02001661 CONDUIT    698.61     0  02:27      1.66    0.22    0.74
  YSB1154YSB6556       CONDUIT     24.54     0  02:09      0.17    0.04    0.56
  YSB1174YSB1171       CONDUIT     18.37     0  02:07      0.07    0.03    0.68
  YSB1171HS02004479    CONDUIT     42.81     0  02:11      0.54    0.03    0.53
  HS02004881HS02006253 CONDUIT     78.04     0  02:11      1.80    0.02    0.26
  YS02001793JiankangQianchi CONDUIT    985.69     0  02:21     16.35    0.08    1.00
  YS02001757CaochengTiaoxuchi CONDUIT   1845.36     0  02:22      2.65    0.81    1.00
  WSF200WS02003060     CONDUIT    669.14     0  02:17      1.77    0.15    0.37
  1                    CONDUIT    978.92     0  02:20      3.31    0.34    0.40
  2                    CONDUIT    161.29     0  03:10      5.52    0.39    0.43
  3                    CONDUIT    534.45     0  02:12      9.89    0.85    0.71
  4                    CONDUIT      0.00     0  00:00      0.00    0.00    0.00
  CC-Pump-1            PUMP       200.00     0  01:42              1.00
  CC-Pump-2            PUMP       200.00     0  03:10              1.00
  JK-Pump-1            PUMP       300.00     0  00:10              1.00
  JK-Pump-2            PUMP       300.00     0  01:46              1.00
  XR-Pump-1            PUMP        95.00     0  00:10              1.00
  XR-Pump-2            PUMP        95.00     0  00:10              1.00
  XR-Pump-3            PUMP        95.00     0  00:50              1.00
  XR-Pump-4            PUMP        95.00     0  00:10              1.00
  
  
  ***************************
  Flow Classification Summary
  ***************************
  
  -------------------------------------------------------------------------------------
                      Adjusted    ---------- Fraction of Time in Flow Class ---------- 
                       /Actual         Up    Down  Sub   Sup   Up    Down  Norm  Inlet 
  Conduit               Length    Dry  Dry   Dry   Crit  Crit  Crit  Crit  Ltd   Ctrl  
  -------------------------------------------------------------------------------------
  WS02003066WSF200        1.00   0.04  0.00  0.00  0.00  0.96  0.00  0.00  0.60  0.00
  WS02006287WS02006284    1.00   0.03  0.01  0.00  0.54  0.42  0.00  0.00  0.62  0.00
  WS02006284WS02006280    1.00   0.04  0.00  0.00  0.00  0.00  0.00  0.96  0.00  0.00
  WS02006280WS02006229    1.00   0.04  0.00  0.00  0.00  0.00  0.00  0.96  0.00  0.00
  WS02006229WS02006228    1.00   0.00  0.00  0.00  1.00  0.00  0.00  0.00  0.00  0.00
  WS02006256WS02006235    1.00   0.00  0.00  0.00  1.00  0.00  0.00  0.00  0.00  0.00
  WS02006253WS02006251    1.00   0.02  0.01  0.00  0.96  0.00  0.00  0.00  0.00  0.00
  WS02006252WS02006251    1.00   0.06  0.00  0.00  0.00  0.00  0.94  0.00  0.00  0.00
  WS02006251WS02006249    1.00   0.00  0.00  0.00  1.00  0.00  0.00  0.00  0.20  0.00
  WS02006249WS02006248    1.00   0.00  0.01  0.00  0.93  0.00  0.06  0.00  0.00  0.00
  WS02006248WS02006247    1.00   0.01  0.00  0.00  0.98  0.00  0.00  0.01  0.10  0.00
  WS02006247WS02006245    1.00   0.01  0.00  0.00  0.99  0.00  0.00  0.00  0.00  0.00
  WS02006245WS02006243    1.00   0.01  0.00  0.00  0.97  0.00  0.00  0.02  0.01  0.00
  WS02006243WS02006242    1.00   0.00  0.00  0.00  0.99  0.00  0.00  0.00  0.16  0.00
  WS02006242WS02006240    1.00   0.00  0.00  0.00  1.00  0.00  0.00  0.00  0.00  0.00
  WS02006240WS02006239    1.00   0.00  0.00  0.00  0.98  0.00  0.00  0.02  0.01  0.00
  WS02006239WS02006238    1.00   0.00  0.00  0.00  1.00  0.00  0.00  0.00  0.00  0.00
  WS02006238WS02006235    1.00   0.00  0.00  0.00  1.00  0.00  0.00  0.00  0.00  0.00
  WS02006235WS02006234    1.00   0.00  0.00  0.00  0.98  0.00  0.02  0.00  0.00  0.00
  WS02006234WS02006232    1.00   0.00  0.00  0.00  1.00  0.00  0.00  0.00  0.00  0.00
  WS02006232WS02006231    1.00   0.00  0.00  0.00  1.00  0.00  0.00  0.00  0.00  0.00
  WS02006231WS02006230    1.00   0.00  0.00  0.00  0.54  0.00  0.46  0.00  0.00  0.00
  WS02006230WS02006229    1.00   0.00  0.00  0.00  0.99  0.00  0.00  0.01  0.01  0.00
  WS02006228WS02006109    1.00   0.00  0.00  0.00  1.00  0.00  0.00  0.00  0.00  0.00
  WS02006116WS02004401    1.00   0.02  0.00  0.00  0.98  0.00  0.00  0.00  0.00  0.00
  WS02006115WS02006116    1.00   0.02  0.00  0.00  0.98  0.00  0.00  0.00  0.00  0.00
  WS02006113WS02006111    1.00   0.01  0.00  0.00  0.00  0.99  0.00  0.00  0.12  0.00
  WS02006112WS02006115    1.00   0.01  0.01  0.00  0.98  0.00  0.00  0.00  0.00  0.00
  WS02006111WS02006112    1.00   0.01  0.00  0.00  0.98  0.00  0.00  0.00  0.86  0.00
  WS02006110WS02006113    1.00   0.00  0.01  0.00  0.99  0.00  0.00  0.00  0.00  0.00
  WS02006109WS02006110    1.00   0.00  0.00  0.00  0.99  0.00  0.01  0.00  0.00  0.00
  WS02004411WS02004412    1.00   0.03  0.00  0.00  0.97  0.00  0.00  0.00  0.00  0.00
  WS02004401WS02004402    1.00   0.02  0.00  0.00  0.98  0.00  0.00  0.00  0.00  0.00
  WS02004413WS02003067    1.00   0.03  0.01  0.00  0.00  0.00  0.96  0.00  0.00  0.00
  WS02004412WS02004413    1.00   0.03  0.00  0.00  0.97  0.00  0.00  0.00  0.02  0.00
  WS02004410WS02004411    1.00   0.03  0.00  0.00  0.97  0.00  0.00  0.00  0.02  0.00
  WS02004409WS02004410    1.00   0.03  0.00  0.00  0.97  0.00  0.00  0.00  0.03  0.00
  WS02004407WS02004409    1.00   0.03  0.00  0.00  0.97  0.00  0.00  0.00  0.92  0.00
  WS02004406WS02004407    1.00   0.00  0.03  0.00  0.97  0.00  0.00  0.00  0.00  0.00
  WS02004405WS02004406    1.00   0.00  0.00  0.00  1.00  0.00  0.00  0.00  0.01  0.00
  WS02004404WS02004405    1.00   0.00  0.00  0.00  1.00  0.00  0.00  0.00  0.00  0.00
  WS02004403WS02004404    1.00   0.00  0.02  0.00  0.98  0.00  0.00  0.00  0.00  0.00
  WS02004402WS02004403    1.00   0.02  0.00  0.00  0.98  0.00  0.00  0.00  0.00  0.00
  WS02004139WS02001211    1.00   0.00  0.00  0.00  1.00  0.00  0.00  0.00  0.00  0.00
  WS02004138WS02004139    1.00   0.00  0.00  0.00  0.99  0.00  0.00  0.00  0.99  0.00
  WS02003067WS02003066    1.00   0.04  0.00  0.00  0.96  0.00  0.00  0.00  0.00  0.00
  WS02001213WS02003059    1.00   0.00  0.00  0.00  1.00  0.00  0.00  0.00  0.00  0.00
  WS02001212WS02001213    1.00   0.00  0.00  0.00  0.92  0.00  0.08  0.00  0.00  0.00
  WS02001211WS02001212    1.00   0.00  0.00  0.00  1.00  0.00  0.00  0.00  0.00  0.00
  WS02003072WS02003073    1.00   0.00  0.00  0.00  0.00  0.00  0.00  1.00  0.00  0.00
  WS02003069WS02003072    1.00   0.00  0.00  0.00  1.00  0.00  0.00  0.00  0.20  0.00
  WS02003060WS02003069    1.00   0.00  0.00  0.00  0.99  0.01  0.00  0.00  0.03  0.00
  WS02003059WS02003060    1.00   0.00  0.00  0.00  1.00  0.00  0.00  0.00  0.01  0.00
  HS02004901HS02004770    1.00   0.04  0.00  0.00  0.96  0.00  0.00  0.00  0.00  0.00
  HS02004876HS02004881    1.00   0.01  0.00  0.00  0.82  0.17  0.00  0.00  0.00  0.00
  HS02004870HS02004876    1.00   0.00  0.00  0.00  0.99  0.01  0.00  0.00  0.95  0.00
  HS02004842HS02004848    1.00   0.00  0.04  0.00  0.96  0.00  0.00  0.00  0.58  0.00
  HS02004837HS02004842    1.00   0.00  0.00  0.00  1.00  0.00  0.00  0.00  0.11  0.00
  HS02004830HS02004837    1.00   0.00  0.00  0.00  1.00  0.00  0.00  0.00  0.99  0.00
  HS02004824HS02004830    1.00   0.00  0.00  0.00  1.00  0.00  0.00  0.00  0.00  0.00
  HS02004817HS02004824    1.00   0.00  0.00  0.00  1.00  0.00  0.00  0.00  1.00  0.00
  HS02004770HS02004777    1.00   0.00  0.04  0.00  0.96  0.00  0.00  0.00  0.03  0.00
  HS02004799HS02004480    1.00   0.00  0.02  0.00  0.96  0.00  0.02  0.00  0.00  0.00
  HS02004792HS02004799    1.00   0.00  0.00  0.00  1.00  0.00  0.00  0.00  0.98  0.00
  HS02004788HS02004792    1.00   0.00  0.00  0.00  1.00  0.00  0.00  0.00  0.98  0.00
  HS02004785HS02004788    1.00   0.00  0.00  0.00  1.00  0.00  0.00  0.00  0.00  0.00
  HS02004777HS02004785    1.00   0.00  0.00  0.00  1.00  0.00  0.00  0.00  0.12  0.00
  HS02004480HS02004478    1.00   0.04  0.00  0.00  0.60  0.00  0.00  0.36  0.00  0.00
  HS02004479HS02004480    1.00   0.02  0.00  0.00  0.98  0.00  0.00  0.00  0.11  0.00
  HS02004862HS02004870    1.00   0.00  0.00  0.00  1.00  0.00  0.00  0.00  0.03  0.00
  HS02004848HS02004852    1.00   0.04  0.00  0.00  0.96  0.00  0.00  0.00  0.74  0.00
  HS02004856HS02004862    1.00   0.00  0.04  0.00  0.96  0.00  0.00  0.00  0.83  0.00
  HS02004852HS02004856    1.00   0.04  0.00  0.00  0.96  0.00  0.00  0.00  0.86  0.00
  HS02004802HS02004478    1.00   0.04  0.00  0.00  0.96  0.00  0.00  0.00  0.02  0.00
  HS02004478WS02006287    1.00   0.04  0.00  0.00  0.67  0.29  0.00  0.00  0.64  0.00
  HS02004817HS02004807    1.00   0.00  0.04  0.00  0.96  0.00  0.00  0.00  0.01  0.00
  HS02004807HS02004802    1.00   0.04  0.00  0.00  0.96  0.00  0.00  0.00  0.00  0.00
  YS02001759YS02001757    1.00   0.00  0.00  0.00  1.00  0.00  0.00  0.00  0.15  0.00
  YS02001762YS02001759    1.00   0.00  0.00  0.00  1.00  0.00  0.00  0.00  0.03  0.00
  YS02001765YS02001762    1.00   0.00  0.00  0.00  1.00  0.00  0.00  0.00  0.14  0.00
  YS02001770YS02001767    1.00   0.00  0.00  0.00  1.00  0.00  0.00  0.00  0.00  0.00
  YS02001774YS02001770    1.00   0.00  0.04  0.00  0.96  0.00  0.00  0.00  0.03  0.00
  YS02001779YS02001774    1.00   0.00  0.00  0.00  1.00  0.00  0.00  0.00  0.18  0.00
  YS02001649YS02001757    1.00   0.00  0.00  0.00  1.00  0.00  0.00  0.00  0.16  0.00
  YS02001767YS02001765    1.00   0.00  0.00  0.00  1.00  0.00  0.00  0.00  0.00  0.00
  YS02006561YS02001783    1.00   0.05  0.00  0.00  0.52  0.44  0.00  0.00  0.55  0.00
  YS02001783YS02001784    1.00   0.00  0.05  0.00  0.95  0.00  0.00  0.00  0.00  0.00
  YS02001784YS02001785    1.00   0.00  0.00  0.00  1.00  0.00  0.00  0.00  0.17  0.00
  YS02001788YS02001790    1.00   0.00  0.00  0.00  0.54  0.46  0.00  0.00  0.47  0.00
  YS02001790YS02001791    1.00   0.00  0.00  0.00  0.50  0.50  0.00  0.00  0.35  0.00
  YS02001791YS02001793    1.00   0.00  0.00  0.00  0.52  0.48  0.00  0.00  0.02  0.00
  YS02001910YS02001907    1.00   0.00  0.00  0.00  0.98  0.00  0.00  0.02  0.12  0.00
  YS02001786YS02001788    1.00   0.00  0.00  0.00  0.54  0.46  0.00  0.00  0.00  0.00
  YS02001915YS02001910    1.00   0.00  0.00  0.00  0.98  0.02  0.00  0.00  0.15  0.00
  YS02001918YS02001915    1.00   0.00  0.00  0.00  0.98  0.01  0.00  0.00  0.55  0.00
  YS02001923YS02001920    1.00   0.00  0.00  0.00  1.00  0.00  0.00  0.00  0.79  0.00
  YS02001926YS02001923    1.00   0.00  0.03  0.00  0.24  0.00  0.74  0.00  0.00  0.00
  YS02001929YS02001926    1.00   0.00  0.04  0.00  0.96  0.00  0.00  0.00  0.73  0.00
  YS02001920YS02001918    1.00   0.00  0.00  0.00  1.00  0.00  0.00  0.00  0.00  0.00
  YS02001629YS02163301    1.00   0.04  0.00  0.00  0.96  0.00  0.00  0.00  0.00  0.00
  YS02001619YS02001622    1.00   0.04  0.00  0.00  0.96  0.00  0.00  0.00  0.00  0.00
  YS02001622YS02001625    1.00   0.04  0.00  0.00  0.96  0.00  0.00  0.00  0.04  0.00
  YS02001625YS02001629    1.00   0.04  0.01  0.00  0.94  0.00  0.01  0.00  0.00  0.00
  YS02163301YS02001633    1.00   0.00  0.04  0.00  0.96  0.00  0.00  0.00  0.00  0.00
  YS02163601YS02164001    1.00   0.00  0.03  0.00  0.97  0.00  0.00  0.00  0.00  0.00
  YS02164001YS02001641    1.00   0.00  0.03  0.00  0.97  0.00  0.00  0.00  0.06  0.00
  YS02001641YS02001644    1.00   0.00  0.00  0.00  1.00  0.00  0.00  0.00  0.00  0.00
  YS02001647YS02001649    1.00   0.00  0.04  0.00  0.96  0.00  0.00  0.00  0.01  0.00
  YS02006553YS02006556    1.00   0.00  0.00  0.00  1.00  0.00  0.00  0.00  0.03  0.00
  YS02006556YS02006558    1.00   0.00  0.00  0.00  1.00  0.00  0.00  0.00  0.00  0.00
  YSB6556YSB1171          1.00   0.02  0.01  0.00  0.96  0.00  0.00  0.00  0.00  0.00
  YS02001907YS02006553    1.00   0.00  0.01  0.00  0.99  0.00  0.00  0.00  0.00  0.00
  YS02006558YS02006561    1.00   0.05  0.00  0.00  0.24  0.71  0.00  0.00  0.46  0.00
  YS02001633YS02163601    1.00   0.00  0.00  0.00  1.00  0.00  0.00  0.00  0.15  0.00
  YS02001644YS02001647    1.00   0.00  0.04  0.00  0.96  0.00  0.00  0.00  0.00  0.00
  YS02001745YS02001748    1.00   0.00  0.00  0.00  0.91  0.01  0.00  0.09  0.04  0.00
  YS02001748YS02001751    1.00   0.00  0.00  0.00  0.98  0.02  0.00  0.00  0.14  0.00
  YS02001751YS02001754    1.00   0.00  0.00  0.00  0.95  0.00  0.00  0.05  0.02  0.00
  YS02001754YS02001757    1.00   0.00  0.00  0.00  1.00  0.00  0.00  0.00  0.18  0.00
  YS02001882YS02001884    1.00   0.04  0.00  0.00  0.96  0.00  0.00  0.00  0.00  0.00
  YS02001884YS02001887    1.00   0.03  0.01  0.00  0.97  0.00  0.00  0.00  0.00  0.00
  YS02001890YS02001895    1.00   0.00  0.04  0.00  0.96  0.00  0.00  0.00  0.00  0.00
  YS02001895YS02001898    1.00   0.04  0.00  0.00  0.95  0.00  0.00  0.00  0.00  0.00
  YS02001898YS02001901    1.00   0.04  0.00  0.00  0.96  0.00  0.00  0.00  0.01  0.00
  YS02001901YS02001904    1.00   0.04  0.00  0.00  0.96  0.00  0.00  0.00  0.00  0.00
  YS02001904YS02001907    1.00   0.00  0.04  0.00  0.96  0.00  0.00  0.00  0.00  0.00
  YS02001887YS02001890    1.00   0.00  0.00  0.00  0.98  0.00  0.02  0.00  0.00  0.00
  YS02001652YS02001649    1.00   0.00  0.00  0.00  1.00  0.00  0.00  0.00  0.16  0.00
  YS02001655YS02001652    1.00   0.00  0.00  0.00  0.95  0.00  0.00  0.05  0.02  0.00
  YS02001658YS02001655    1.00   0.00  0.04  0.00  0.94  0.02  0.00  0.00  0.04  0.00
  YS02001661YS02001658    1.00   0.04  0.00  0.00  0.91  0.05  0.00  0.00  0.03  0.00
  YS02001664YS02001661    1.00   0.04  0.00  0.00  0.87  0.09  0.00  0.00  0.16  0.00
  YSB1154YSB6556          1.00   0.04  0.00  0.00  0.96  0.00  0.00  0.00  0.02  0.00
  YSB1174YSB1171          1.00   0.02  0.01  0.00  0.97  0.00  0.00  0.00  0.00  0.00
  YSB1171HS02004479       1.00   0.02  0.00  0.00  0.97  0.00  0.00  0.00  0.10  0.00
  HS02004881HS02006253    1.00   0.03  0.00  0.00  0.92  0.00  0.00  0.05  0.76  0.00
  YS02001793JiankangQianchi    1.00   0.00  0.00  0.00  0.68  0.32  0.00  0.00  0.16  0.00
  YS02001757CaochengTiaoxuchi    1.00   0.00  0.06  0.00  0.89  0.05  0.00  0.00  0.00  0.00
  WSF200WS02003060        1.00   0.00  0.04  0.00  0.95  0.01  0.00  0.00  0.11  0.00
  1                       1.00   0.00  0.00  0.00  0.00  1.00  0.00  0.00  0.30  0.00
  2                       1.00   0.70  0.00  0.00  0.00  0.30  0.00  0.00  0.01  0.00
  3                       1.00   0.04  0.00  0.00  0.00  0.96  0.00  0.00  0.17  0.00
  4                       1.00   1.00  0.00  0.00  0.00  0.00  0.00  0.00  0.00  0.00
  
  
  *************************
  Conduit Surcharge Summary
  *************************
  
  ----------------------------------------------------------------------------
                                                           Hours        Hours 
                         --------- Hours Full --------   Above Full   Capacity
  Conduit                Both Ends  Upstream  Dnstream   Normal Flow   Limited
  ----------------------------------------------------------------------------
  WS02006229WS02006228        1.90      1.94      1.90      6.13         1.90
  WS02006256WS02006235        6.46      6.46      7.98      4.56         0.01
  WS02006252WS02006251        0.26      0.26      0.42      0.38         0.01
  WS02006251WS02006249        0.01      0.01      0.01      0.31         0.01
  WS02006249WS02006248        0.01      0.01      0.01      5.99         0.01
  WS02006247WS02006245        0.01      0.01      0.01      6.06         0.01
  WS02006245WS02006243        0.01      0.01      0.04      0.01         0.01
  WS02006243WS02006242        0.60      0.60      1.62      0.01         0.01
  WS02006242WS02006240        1.53      1.53      1.67      0.42         0.01
  WS02006240WS02006239        1.56      1.56      1.59      0.01         0.01
  WS02006239WS02006238        1.68      1.68      1.71      0.01         0.01
  WS02006238WS02006235        1.70      1.70      1.75      0.01         0.01
  WS02006235WS02006234        1.56      1.56      1.68      6.47         0.01
  WS02006234WS02006232        1.63      1.63      1.80      0.01         0.01
  WS02006232WS02006231        1.30      1.30      1.80      0.01         0.01
  WS02006231WS02006230        1.07      1.07      1.34      6.54         0.01
  WS02006230WS02006229        2.36      5.59      2.36      6.68         2.36
  WS02006228WS02006109        1.92      2.07      1.92      6.24         1.92
  WS02006112WS02006115        0.01      0.01      1.57      0.01         0.01
  WS02006111WS02006112        0.01      0.01      6.14      0.01         0.01
  WS02006110WS02006113        0.01      0.01      1.99      0.01         0.01
  WS02006109WS02006110        1.43      1.43      2.07      1.44         0.01
  WS02004406WS02004407        0.01      0.01      0.83      0.01         0.01
  WS02004405WS02004406        0.83      1.01      0.83      1.50         0.83
  WS02004404WS02004405        1.01      1.14      1.01      6.42         1.01
  WS02004403WS02004404        0.02      0.02      1.14      0.01         0.01
  WS02004402WS02004403        0.01      0.01      0.02      0.01         0.01
  WS02003072WS02003073        0.01      0.01      0.01      6.10         0.01
  HS02004480HS02004478        0.01      0.01      0.01      0.61         0.01
  YS02001759YS02001757        6.16      6.16      6.21      0.01         0.01
  YS02001762YS02001759        6.14      6.14      6.16      0.01         0.01
  YS02001765YS02001762        6.12      6.12      6.14      0.01         0.01
  YS02001770YS02001767        6.11      6.11      6.11      0.42         0.83
  YS02001774YS02001770        6.10      6.10      6.14      0.01         0.01
  YS02001779YS02001774        5.95      5.95      6.14      0.01         0.01
  YS02001649YS02001757        6.15      6.15      6.21      0.01         0.01
  YS02001767YS02001765        6.11      6.11      6.12      0.01         0.01
  YS02006561YS02001783        1.07      1.07      1.69      0.01         0.01
  YS02001783YS02001784        1.66      1.69      1.71      1.71         1.46
  YS02001784YS02001785        1.52      1.71      1.52      2.52         1.52
  YS02001788YS02001790        1.50      1.50      2.91      0.01         0.01
  YS02001790YS02001791        2.91      2.91      3.03      1.04         0.91
  YS02001791YS02001793        3.03      3.03      3.30      0.01         0.01
  YS02001910YS02001907        1.53      1.53      1.98      0.01         0.01
  YS02001786YS02001788        1.50      1.52      1.50      2.15         1.50
  YS02001915YS02001910        1.25      1.25      1.53      0.01         0.01
  YS02001918YS02001915        0.95      0.95      1.25      0.01         0.01
  YS02001923YS02001920        0.76      0.76      0.99      0.01         0.01
  YS02001920YS02001918        0.95      0.95      0.99      0.01         0.01
  YS02001629YS02163301        6.10      6.10      6.11      0.01         0.01
  YS02001619YS02001622        5.82      5.82      5.85      0.01         0.01
  YS02001622YS02001625        5.85      5.85      6.08      0.01         0.01
  YS02001625YS02001629        5.84      5.84      6.08      0.01         0.01
  YS02163301YS02001633        6.11      6.11      6.13      0.01         0.01
  YS02163601YS02164001        6.13      6.13      6.14      0.01         0.01
  YS02164001YS02001641        6.13      6.13      6.13      0.01         0.02
  YS02001641YS02001644        6.13      6.13      6.13      1.81         1.70
  YS02001647YS02001649        6.04      6.04      6.15      0.01         0.01
  YS02006553YS02006556        1.76      1.76      2.04      0.01         0.01
  YS02006556YS02006558        1.89      1.89      2.11      0.01         0.01
  YS02001907YS02006553        2.53      2.53      2.73      0.01         0.01
  YS02006558YS02006561        1.24      1.71      1.24      2.39         1.24
  YS02001633YS02163601        6.12      6.12      6.14      0.01         0.01
  YS02001644YS02001647        6.04      6.04      6.13      0.01         0.01
  YS02001745YS02001748        0.01      0.01      5.68      0.01         0.01
  YS02001748YS02001751        5.72      5.72      5.79      0.01         0.01
  YS02001751YS02001754        5.79      5.79      5.95      0.01         0.01
  YS02001754YS02001757        6.00      6.00      6.21      0.01         0.01
  YS02001882YS02001884        1.28      1.28      1.32      0.01         0.01
  YS02001884YS02001887        1.40      1.40      1.43      0.01         0.01
  YS02001890YS02001895        1.23      1.23      1.55      0.01         0.01
  YS02001895YS02001898        1.21      1.21      1.23      0.01         0.01
  YS02001898YS02001901        1.24      1.24      1.38      0.01         0.01
  YS02001901YS02001904        1.35      1.35      1.38      0.01         0.01
  YS02001904YS02001907        1.35      1.35      2.07      0.01         0.01
  YS02001887YS02001890        1.47      1.47      1.51      0.01         0.01
  YS02001652YS02001649        6.05      6.05      6.15      0.01         0.01
  YS02001655YS02001652        5.83      5.83      5.99      0.01         0.01
  YS02001658YS02001655        5.71      5.71      5.83      0.01         0.01
  YS02001661YS02001658        0.27      0.27      5.71      0.01         0.01
  YS02001664YS02001661        0.01      0.01      1.42      0.01         0.01
  YS02001793JiankangQianchi        3.23      3.23      4.35      0.01         0.01
  YS02001757CaochengTiaoxuchi        5.50      5.50      6.21      0.01         0.01
  
  
  ***************
  Pumping Summary
  ***************
  
  ---------------------------------------------------------------------------------------------------------
                                                  Min       Avg       Max     Total     Power    % Time Off
                        Percent   Number of      Flow      Flow      Flow    Volume     Usage    Pump Curve
  Pump                 Utilized   Start-Ups       LPS       LPS       LPS  10^6 ltr     Kw-hr    Low   High
  ---------------------------------------------------------------------------------------------------------
  CC-Pump-1               77.39           1      0.00    197.30    200.00     4.369      4.71    0.0    7.7
  CC-Pump-2                6.25           1      0.00    134.49    200.00     0.240      0.28    0.0    0.0
  JK-Pump-1               43.75           1      0.00    256.37    300.00     2.100     21.69    0.0    0.0
  JK-Pump-2               89.58           1      0.00    255.99    300.00     5.798     51.30    0.0    0.0
  XR-Pump-1               66.67           2      0.00     91.16     95.00     1.710     10.12    0.0    0.0
  XR-Pump-2               43.75           1      0.00     90.79     95.00     1.140     14.32    0.0    0.0
  XR-Pump-3               89.58           1      0.00     94.14     95.00     2.394     18.51    0.0    0.0
  XR-Pump-4               97.92           1      0.00     94.01     95.00     2.622     21.47    0.0    0.0
  

  Analysis begun on:  Wed Dec 15 10:40:52 2021
  Analysis ended on:  Wed Dec 15 10:40:57 2021
  Total elapsed time: 00:00:05