
  EPA STORM WATER MANAGEMENT MODEL - VERSION 5.1 (Build 5.3.0.dev0)
  --------------------------------------------------------------

  WARNING 04: minimum elevation drop used for Conduit WS02004404WS02004405
  WARNING 03: negative offset ignored for Link YS02001904YS02001907
  
  *********************************************************
  NOTE: The summary statistics displayed in this report are
  based on results found at every computational time step,  
  not just on results from each reporting time step.
  *********************************************************
  
  ****************
  Analysis Options
  ****************
  Flow Units ............... LPS
  Process Models:
    Rainfall/Runoff ........ YES
    RDII ................... NO
    Snowmelt ............... NO
    Groundwater ............ NO
    Flow Routing ........... YES
    Ponding Allowed ........ NO
    Water Quality .......... NO
  Infiltration Method ...... HORTON
  Flow Routing Method ...... DYNWAVE
  Surcharge Method ......... EXTRAN
  Starting Date ............ 08/28/2015 08:00:00
  Ending Date .............. 08/28/2015 15:50:00
  Antecedent Dry Days ...... 8.0
  Report Time Step ......... 00:01:00
  Wet Time Step ............ 00:01:00
  Dry Time Step ............ 00:01:00
  Routing Time Step ........ 5.00 sec
  Variable Time Step ....... YES
  Maximum Trials ........... 8
  Number of Threads ........ 4
  Head Tolerance ........... 0.001500 m
  
  
  **************************        Volume         Depth
  Runoff Quantity Continuity     hectare-m            mm
  **************************     ---------       -------
  Total Precipitation ......         1.959         4.290
  Evaporation Loss .........         0.000         0.000
  Infiltration Loss ........         0.484         1.060
  Surface Runoff ...........         0.669         1.465
  Final Storage ............         0.806         1.766
  Continuity Error (%) .....        -0.017
  
  
  **************************        Volume        Volume
  Flow Routing Continuity        hectare-m      10^6 ltr
  **************************     ---------     ---------
  Dry Weather Inflow .......         0.616         6.165
  Wet Weather Inflow .......         0.669         6.687
  Groundwater Inflow .......         0.000         0.000
  RDII Inflow ..............         0.000         0.000
  External Inflow ..........         0.102         1.024
  External Outflow .........         1.654        16.539
  Flooding Loss ............         0.000         0.000
  Evaporation Loss .........         0.000         0.000
  Exfiltration Loss ........         0.000         0.000
  Initial Stored Volume ....         0.076         0.761
  Final Stored Volume ......         0.132         1.315
  Continuity Error (%) .....       -21.990
  
  
  *************************
  Highest Continuity Errors
  *************************
  Node JK-storage (-36.42%)
  Node HS02004842 (36.20%)
  Node YS02001884 (30.38%)
  Node YS02001774 (14.81%)
  Node YSB1171 (10.25%)
  
  
  ***************************
  Time-Step Critical Elements
  ***************************
  Link WS02006252WS02006251 (57.74%)
  Link 3 (33.40%)
  Link WS02006238WS02006235 (2.96%)
  Link WS02006280WS02006229 (2.05%)
  
  
  ********************************
  Highest Flow Instability Indexes
  ********************************
  Link WS02006113WS02006111 (43)
  Link WS02006111WS02006112 (33)
  Link WS02006110WS02006113 (3)
  Link YS02001754YS02001757 (3)
  Link YS02001751YS02001754 (3)
  
  
  *************************
  Routing Time Step Summary
  *************************
  Minimum Time Step           :     0.42 sec
  Average Time Step           :     0.90 sec
  Maximum Time Step           :     5.00 sec
  Percent in Steady State     :    -0.00
  Average Iterations per Step :     2.11
  Percent Not Converging      :     0.04
  
  
  ***************************
  Subcatchment Runoff Summary
  ***************************
  
  ------------------------------------------------------------------------------------------------------------------------------
                            Total      Total      Total      Total     Imperv       Perv      Total       Total     Peak  Runoff
                           Precip      Runon       Evap      Infil     Runoff     Runoff     Runoff      Runoff   Runoff   Coeff
  Subcatchment                 mm         mm         mm         mm         mm         mm         mm    10^6 ltr      LPS
  ------------------------------------------------------------------------------------------------------------------------------
  sub0                       4.29       0.00       0.00       0.30       2.73       0.00       2.73        0.00     0.90   0.635
  sub1                       4.29       0.00       0.00       0.47       2.57       0.00       2.57        0.02     4.48   0.598
  sub2                       4.29       0.00       0.00       1.59       1.80       0.00       1.80        0.02     3.91   0.419
  sub3                       4.29       0.00       0.00       1.59       1.77       0.00       1.77        0.04     7.91   0.412
  sub4                       4.29       0.00       0.00       0.47       2.44       0.00       2.44        0.05     8.75   0.568
  sub5                       4.29       0.00       0.00       0.30       2.68       0.00       2.68        0.03     7.96   0.625
  sub7                       4.29       0.00       0.00       0.39       2.65       0.00       2.65        0.01     2.87   0.618
  sub8                       4.29       0.00       0.00       0.39       2.64       0.00       2.64        0.02     5.03   0.616
  sub9                       4.29       0.00       0.00       0.39       2.64       0.00       2.64        0.01     3.72   0.615
  sub10                      4.29       0.00       0.00       0.34       2.66       0.00       2.66        0.03     7.98   0.620
  sub11                      4.29       0.00       0.00       0.34       2.67       0.00       2.67        0.03     9.48   0.623
  sub12                      4.29       0.00       0.00       0.56       2.54       0.00       2.54        0.02     8.21   0.593
  sub14                      4.29       0.00       0.00       0.39       2.64       0.00       2.64        0.03     7.26   0.615
  sub15                      4.29       0.00       0.00       1.29       2.03       0.00       2.03        0.03     9.82   0.472
  sub16                      4.29       0.00       0.00       1.42       1.96       0.00       1.96        0.02     7.17   0.456
  sub17                      4.29       0.00       0.00       1.37       1.98       0.00       1.98        0.02     5.77   0.462
  sub22                      4.29       0.00       0.00       1.84       1.66       0.00       1.66        0.10    32.51   0.386
  sub23                      4.29       0.00       0.00       1.59       1.83       0.00       1.83        0.09    27.76   0.427
  sub60                      4.29       0.00       0.00       0.51       1.60       0.00       1.60        0.48    40.77   0.372
  sub61                      4.29       0.00       0.00       0.73       1.76       0.00       1.76        0.54    52.21   0.410
  sub62                      4.29       0.00       0.00       0.34       1.87       0.00       1.87        0.58    53.04   0.436
  sub63                      4.29       0.00       0.00       1.24       1.58       0.00       1.58        0.48    49.15   0.369
  sub64                      4.29       0.00       0.00       0.64       1.52       0.00       1.52        0.46    38.65   0.355
  sub65                      4.29       0.00       0.00       0.56       1.54       0.00       1.54        0.47    39.15   0.359
  sub66                      4.29       0.00       0.00       1.24       1.34       0.00       1.34        0.41    35.67   0.313
  sub67                      4.29       0.00       0.00       0.34       2.11       0.00       2.11        0.65    69.44   0.492
  sub68                      4.29       0.00       0.00       0.60       1.88       0.00       1.88        0.58    58.04   0.439
  sub69                      4.29       0.00       0.00       0.64       2.09       0.00       2.09        0.49    59.02   0.487
  sub70                      4.29       2.13       0.00       2.18       2.41       0.00       2.41        0.55    43.29   0.375
  sub71                      4.29       0.00       0.00       0.34       1.77       0.00       1.77        0.42    36.75   0.413
  sub72                      4.29       0.00       0.00       0.30       1.18       0.00       1.18        0.24    16.67   0.274
  sub73                      4.29       2.35       0.00       2.26       2.35       0.00       2.35        0.55    36.86   0.354
  sub74                      4.29       0.00       0.00       3.22       0.64       0.00       0.64        0.25    33.23   0.148
  
  
  ******************
  Node Depth Summary
  ******************
  
  ---------------------------------------------------------------------------------
                                 Average  Maximum  Maximum  Time of Max    Reported
                                   Depth    Depth      HGL   Occurrence   Max Depth
  Node                 Type       Meters   Meters   Meters  days hr:min      Meters
  ---------------------------------------------------------------------------------
  WS02001211           JUNCTION     0.71     0.78     5.62     0  03:02        0.78
  WS02001212           JUNCTION     0.42     0.49     5.55     0  03:02        0.49
  WS02001213           JUNCTION     0.65     0.73     5.49     0  03:01        0.73
  WS02003069           JUNCTION     0.45     0.54     5.12     0  03:00        0.54
  WS02003072           JUNCTION     0.52     0.60     4.97     0  03:00        0.60
  WS02003073           JUNCTION     0.31     0.36     4.43     0  03:01        0.36
  WS02003060           JUNCTION     0.40     0.47     5.41     0  02:59        0.47
  WS02003066           JUNCTION     0.23     0.27     5.82     0  04:03        0.27
  WS02003059           JUNCTION     0.70     0.78     5.47     0  03:00        0.78
  WS02003067           JUNCTION     0.56     0.65     5.97     0  04:03        0.65
  WS02004401           JUNCTION     0.65     0.76     6.76     0  03:58        0.76
  WS02004402           JUNCTION     0.69     0.79     6.75     0  03:58        0.79
  WS02004403           JUNCTION     0.71     0.81     6.74     0  03:58        0.81
  WS02004404           JUNCTION     0.78     0.88     6.73     0  03:58        0.88
  WS02004406           JUNCTION     0.79     0.88     6.71     0  03:58        0.88
  WS02004409           JUNCTION     0.47     0.58     6.35     0  04:02        0.58
  WS02004410           JUNCTION     0.49     0.60     6.32     0  04:02        0.60
  WS02004411           JUNCTION     0.51     0.61     6.29     0  04:02        0.61
  WS02004412           JUNCTION     0.53     0.62     6.26     0  04:02        0.62
  WS02004413           JUNCTION     0.69     0.79     6.26     0  04:03        0.79
  WS02004405           JUNCTION     0.78     0.88     6.73     0  03:58        0.88
  WS02006109           JUNCTION     0.73     0.84     7.46     0  03:48        0.84
  WS02006110           JUNCTION     0.73     0.82     7.41     0  03:49        0.82
  WS02006111           JUNCTION     0.21     0.25     6.96     0  03:49        0.25
  WS02006112           JUNCTION     0.82     0.93     6.82     0  03:59        0.93
  WS02006113           JUNCTION     0.33     0.39     7.29     0  03:49        0.39
  WS02006115           JUNCTION     0.54     0.65     6.79     0  03:57        0.65
  WS02006116           JUNCTION     0.63     0.73     6.77     0  03:57        0.73
  WS02006230           JUNCTION     0.69     0.85     7.60     0  03:48        0.85
  WS02006231           JUNCTION     0.46     0.58     7.71     0  03:49        0.58
  WS02006232           JUNCTION     0.60     0.73     7.77     0  03:49        0.73
  WS02006234           JUNCTION     0.52     0.68     7.84     0  03:49        0.68
  WS02006235           JUNCTION     0.55     0.72     7.88     0  03:49        0.72
  WS02006238           JUNCTION     0.58     0.75     7.89     0  03:49        0.75
  WS02006240           JUNCTION     0.48     0.68     7.97     0  03:50        0.68
  WS02006242           JUNCTION     0.54     0.75     8.02     0  03:49        0.75
  WS02006243           JUNCTION     0.42     0.64     8.06     0  03:50        0.64
  WS02006245           JUNCTION     0.41     0.62     8.10     0  03:50        0.62
  WS02006247           JUNCTION     0.43     0.63     8.13     0  03:50        0.63
  WS02006248           JUNCTION     0.38     0.57     8.16     0  03:50        0.57
  WS02006249           JUNCTION     0.41     0.60     8.19     0  03:50        0.60
  WS02006239           JUNCTION     0.54     0.73     7.94     0  03:49        0.73
  WS02006251           JUNCTION     0.40     0.62     8.29     0  04:21        0.62
  WS02006252           JUNCTION     0.37     0.59     8.83     0  04:22        0.58
  WS02006253           JUNCTION     0.43     0.65     8.29     0  04:24        0.64
  WS02006256           JUNCTION     0.94     1.15     8.09     0  00:00        1.14
  WS02004138           JUNCTION     0.17     0.19     7.44     0  02:00        0.19
  WS02004407           JUNCTION     0.22     0.26     6.57     0  03:58        0.26
  WS02006228           JUNCTION     0.72     0.85     7.50     0  03:48        0.85
  WS02006229           JUNCTION     0.69     0.83     7.52     0  03:48        0.83
  WS02006280           JUNCTION     0.05     0.11     8.39     0  02:22        0.11
  WS02006284           JUNCTION     0.34     0.44     8.84     0  02:22        0.44
  WS02006287           JUNCTION     0.07     0.17     9.12     0  02:22        0.17
  WSF200               JUNCTION     0.21     0.26     5.49     0  04:03        0.26
  HS02004901           JUNCTION     0.10     0.19    10.01     0  02:20        0.19
  HS02004881           JUNCTION     0.00     0.02     9.05     0  02:21        0.02
  HS02004876           JUNCTION     0.03     0.09     9.12     0  02:21        0.09
  HS02004870           JUNCTION     0.01     0.03     9.32     0  02:21        0.03
  HS02004862           JUNCTION     0.01     0.03     9.42     0  02:23        0.03
  HS02004856           JUNCTION     0.07     0.09     9.52     0  02:22        0.09
  HS02004852           JUNCTION     0.00     0.02     9.53     0  02:23        0.02
  HS02004848           JUNCTION     0.00     0.02     9.62     0  02:20        0.02
  HS02004842           JUNCTION     0.32     0.35     9.62     0  02:19        0.35
  HS02004837           JUNCTION     0.02     0.04     9.62     0  02:20        0.04
  HS02004830           JUNCTION     0.03     0.05     9.52     0  02:20        0.05
  HS02004824           JUNCTION     0.02     0.03     9.43     0  02:23        0.03
  HS02004817           JUNCTION     0.41     0.49     9.34     0  02:22        0.49
  HS02004807           JUNCTION     0.10     0.17     9.34     0  02:22        0.17
  HS02004802           JUNCTION     0.14     0.20     9.33     0  02:22        0.20
  HS02004799           JUNCTION     0.09     0.20     9.41     0  02:20        0.20
  HS02004792           JUNCTION     0.02     0.07     9.59     0  02:20        0.07
  HS02004788           JUNCTION     0.02     0.05     9.95     0  02:21        0.05
  HS02004785           JUNCTION     0.03     0.10    10.00     0  02:21        0.10
  HS02004777           JUNCTION     0.12     0.21    10.01     0  02:20        0.21
  HS02004770           JUNCTION     0.09     0.18    10.01     0  02:20        0.18
  HS02004480           JUNCTION     0.05     0.15     9.39     0  02:21        0.15
  HS02004479           JUNCTION     0.09     0.19     9.40     0  02:21        0.19
  HS02004478           JUNCTION     0.04     0.10     9.32     0  02:22        0.10
  YS02001745           JUNCTION     0.06     0.09     7.60     0  03:01        0.09
  YS02001748           JUNCTION     0.07     0.14     7.21     0  03:15        0.13
  YS02001751           JUNCTION     0.19     0.35     7.23     0  03:38        0.35
  YS02001754           JUNCTION     0.45     0.66     7.27     0  03:38        0.66
  YS02001762           JUNCTION     0.64     0.82     7.22     0  03:07        0.82
  YS02001765           JUNCTION     0.59     0.77     7.22     0  03:41        0.77
  YS02001767           JUNCTION     0.56     0.73     7.22     0  03:08        0.73
  YS02001770           JUNCTION     0.55     0.72     7.21     0  03:06        0.72
  YS02001774           JUNCTION     0.62     0.79     7.21     0  03:07        0.79
  YS02001779           JUNCTION     0.37     0.53     7.21     0  03:06        0.53
  YS02001882           JUNCTION     0.23     0.34     7.05     0  02:54        0.34
  YS02001884           JUNCTION     0.32     0.44     7.05     0  02:55        0.44
  YS02001759           JUNCTION     0.67     0.85     7.22     0  03:09        0.85
  YS02001887           JUNCTION     0.40     0.51     7.05     0  02:55        0.51
  YS02001890           JUNCTION     0.43     0.55     7.05     0  02:55        0.55
  YS02001898           JUNCTION     0.20     0.30     7.04     0  02:56        0.30
  YS02001901           JUNCTION     0.32     0.43     7.04     0  02:56        0.43
  YS02001904           JUNCTION     0.30     0.40     7.03     0  02:56        0.40
  YS02001907           JUNCTION     0.62     0.75     7.04     0  02:57        0.75
  YS02001910           JUNCTION     0.41     0.53     7.04     0  02:57        0.53
  YS02001915           JUNCTION     0.21     0.32     7.03     0  02:56        0.32
  YS02001918           JUNCTION     0.06     0.07     7.14     0  03:04        0.07
  YS02001619           JUNCTION     0.16     0.29     7.22     0  03:03        0.29
  YS02001629           JUNCTION     0.50     0.67     7.22     0  03:07        0.67
  YS02001641           JUNCTION     0.61     0.78     7.22     0  03:09        0.78
  YS02001644           JUNCTION     0.61     0.78     7.22     0  03:05        0.78
  YS02001652           JUNCTION     0.46     0.63     7.22     0  03:39        0.63
  YS02001655           JUNCTION     0.22     0.37     7.22     0  03:08        0.36
  YS02001920           JUNCTION     0.15     0.17     7.18     0  03:03        0.17
  YS02001923           JUNCTION     0.05     0.06     7.32     0  03:02        0.06
  YS02001926           JUNCTION     0.11     0.14     7.58     0  03:02        0.14
  YS02001929           JUNCTION     0.05     0.06     7.76     0  03:01        0.06
  YS02001658           JUNCTION     0.06     0.10     7.24     0  02:47        0.10
  YS02001661           JUNCTION     0.13     0.17     7.57     0  02:47        0.17
  YS02001664           JUNCTION     0.05     0.09     8.01     0  02:47        0.09
  YS02001622           JUNCTION     0.18     0.31     7.22     0  03:06        0.31
  YS02001633           JUNCTION     0.59     0.76     7.22     0  03:07        0.76
  YS02001649           JUNCTION     0.65     0.82     7.21     0  03:09        0.82
  YS02001757           JUNCTION     0.77     0.96     7.22     0  03:39        0.96
  YS02001895           JUNCTION     0.19     0.30     7.05     0  02:55        0.30
  YS02001625           JUNCTION     0.46     0.61     7.22     0  03:07        0.61
  YS02163301           JUNCTION     0.53     0.70     7.22     0  03:08        0.70
  YS02163601           JUNCTION     0.65     0.82     7.22     0  03:05        0.82
  YS02164001           JUNCTION     0.59     0.76     7.21     0  03:04        0.76
  YS02001647           JUNCTION     0.44     0.61     7.22     0  03:09        0.60
  YSB1154              JUNCTION     0.23     0.34     9.40     0  02:21        0.34
  YSB6556              JUNCTION     0.12     0.23     9.40     0  02:21        0.23
  YSB1174              JUNCTION     0.18     0.29     9.40     0  02:21        0.29
  YSB1171              JUNCTION     0.38     0.49     9.40     0  02:21        0.49
  YS02006553           JUNCTION     0.63     0.75     7.03     0  02:57        0.75
  YS02006561           JUNCTION     0.11     0.17     6.83     0  02:56        0.17
  YS02006556           JUNCTION     0.60     0.72     7.03     0  02:56        0.72
  YS02006558           JUNCTION     0.64     0.77     7.03     0  02:56        0.77
  YS02001783           JUNCTION     0.18     0.29     6.43     0  02:57        0.29
  YS02001784           JUNCTION     0.22     0.32     6.39     0  02:57        0.32
  YS02001786           JUNCTION     0.18     0.27     6.30     0  02:57        0.27
  YS02001788           JUNCTION     0.13     0.20     6.18     0  02:58        0.20
  YS02001790           JUNCTION     0.16     0.24     5.89     0  02:58        0.24
  YS02001791           JUNCTION     0.10     0.16     5.63     0  02:58        0.16
  YS02001793           JUNCTION     0.07     0.11     4.94     0  02:58        0.11
  WS02004139           JUNCTION     0.65     0.73     5.64     0  03:03        0.73
  WSC                  OUTFALL      0.31     0.36     1.03     0  03:01        0.36
  3                    OUTFALL      0.04     0.14     6.14     0  02:57        0.14
  4                    OUTFALL      0.02     0.10     7.10     0  03:50        0.10
  5                    OUTFALL      0.00     0.00     5.00     0  00:00        0.00
  JK-storage           STORAGE      0.04     3.00     3.80     0  00:00        2.70
  CC-storage           STORAGE      0.01     0.12     7.12     0  03:35        0.12
  XR-storage           STORAGE      0.74     5.57     3.57     0  01:50        5.57
  
  
  *******************
  Node Inflow Summary
  *******************
  
  -------------------------------------------------------------------------------------------------
                                  Maximum  Maximum                  Lateral       Total        Flow
                                  Lateral    Total  Time of Max      Inflow      Inflow     Balance
                                   Inflow   Inflow   Occurrence      Volume      Volume       Error
  Node                 Type           LPS      LPS  days hr:min    10^6 ltr    10^6 ltr     Percent
  -------------------------------------------------------------------------------------------------
  WS02001211           JUNCTION      7.35   387.81     0  03:20       0.207        8.07       0.455
  WS02001212           JUNCTION      0.00   387.98     0  03:20           0        8.03       0.253
  WS02001213           JUNCTION      0.00   388.14     0  03:20           0        8.01       0.273
  WS02003069           JUNCTION      0.32   814.94     0  02:59     0.00902          15       0.183
  WS02003072           JUNCTION      0.00   814.94     0  03:00           0          15       0.228
  WS02003073           JUNCTION      1.82   816.76     0  03:01      0.0514          15       0.253
  WS02003060           JUNCTION     16.53   814.62     0  02:59       0.466          15       0.173
  WS02003066           JUNCTION      0.00   413.70     0  04:03           0         6.6       0.056
  WS02003059           JUNCTION      0.00   388.43     0  03:20           0        7.99       0.472
  WS02003067           JUNCTION      0.00   413.69     0  04:03           0        6.61       0.122
  WS02004401           JUNCTION      0.00   414.10     0  03:55           0        6.81       0.274
  WS02004402           JUNCTION      0.00   414.00     0  03:56           0        6.79       0.262
  WS02004403           JUNCTION      0.00   413.96     0  03:57           0        6.78       0.241
  WS02004404           JUNCTION      0.16   414.09     0  03:58     0.00457        6.76       0.186
  WS02004406           JUNCTION      0.00   414.12     0  03:58           0        6.73       0.454
  WS02004409           JUNCTION      0.00   414.11     0  03:58           0         6.7       0.193
  WS02004410           JUNCTION      0.00   413.88     0  04:00           0        6.69       0.223
  WS02004411           JUNCTION      0.00   413.80     0  04:01           0        6.67       0.234
  WS02004412           JUNCTION      0.00   413.75     0  04:02           0        6.65       0.259
  WS02004413           JUNCTION      0.00   413.72     0  04:02           0        6.64       0.394
  WS02004405           JUNCTION      0.04   414.12     0  03:57     0.00107        6.75       0.278
  WS02006109           JUNCTION      1.23   415.85     0  03:48      0.0347         6.9       0.291
  WS02006110           JUNCTION      0.00   415.86     0  03:48           0        6.88       0.251
  WS02006111           JUNCTION      0.00   425.93     0  03:49           0        6.86       0.048
  WS02006112           JUNCTION      5.77   417.06     0  03:49       0.017        6.87       0.382
  WS02006113           JUNCTION      0.00   415.91     0  03:49           0        6.87       0.114
  WS02006115           JUNCTION      0.00   414.95     0  03:52           0        6.85       0.241
  WS02006116           JUNCTION      0.00   414.31     0  03:55           0        6.83       0.233
  WS02006230           JUNCTION     10.28   390.38     0  04:03        0.29        6.25       0.180
  WS02006231           JUNCTION      0.00   380.04     0  04:04           0        5.97       0.157
  WS02006232           JUNCTION      0.00   380.03     0  04:04           0        5.98       0.233
  WS02006234           JUNCTION      0.00   380.71     0  03:45           0        5.99       0.091
  WS02006235           JUNCTION      0.00   382.19     0  03:42           0        6.03       0.154
  WS02006238           JUNCTION      0.00   313.47     0  04:19           0        4.46       0.134
  WS02006240           JUNCTION      0.00   317.83     0  03:41           0        4.45       0.192
  WS02006242           JUNCTION      0.00   326.66     0  03:41           0        4.45       0.247
  WS02006243           JUNCTION      0.00   336.01     0  03:41           0        4.44       0.042
  WS02006245           JUNCTION      0.00   342.48     0  03:41           0        4.45       0.145
  WS02006247           JUNCTION      0.00   348.76     0  03:41           0        4.45       0.117
  WS02006248           JUNCTION      0.00   354.46     0  03:40           0        4.45       0.061
  WS02006249           JUNCTION      0.00   403.07     0  03:50           0         4.8       0.172
  WS02006239           JUNCTION      0.00   313.43     0  04:18           0        4.46       0.194
  WS02006251           JUNCTION      0.08   410.84     0  04:21     0.00217        4.91       0.140
  WS02006252           JUNCTION      0.00   400.00     0  03:40           0        4.71       0.009
  WS02006253           JUNCTION      0.90    50.09     0  05:19     0.00221       0.195       1.219
  WS02006256           JUNCTION      0.00   368.75     0  02:58           0        2.85       0.092
  WS02004138           JUNCTION      0.00   380.00     0  02:00           0        7.89       0.058
  WS02004407           JUNCTION      0.00   414.11     0  03:58           0         6.7       0.089
  WS02006228           JUNCTION      0.00   414.62     0  03:48           0        6.88       0.192
  WS02006229           JUNCTION      0.00   414.66     0  03:48           0        6.89       0.158
  WS02006280           JUNCTION      0.00   130.24     0  02:22           0       0.655       0.011
  WS02006284           JUNCTION      0.10   130.24     0  02:22      0.0027       0.656       0.172
  WS02006287           JUNCTION      0.00   130.15     0  02:22           0       0.654       0.106
  WSF200               JUNCTION      0.00   413.70     0  04:03           0         6.6       0.051
  HS02004901           JUNCTION      7.17     7.17     0  02:12      0.0205      0.0206       9.313
  HS02004881           JUNCTION      2.87    23.53     0  02:21     0.00892      0.0925       0.239
  HS02004876           JUNCTION      4.48    20.94     0  02:21       0.017      0.0841       0.619
  HS02004870           JUNCTION      5.03    16.58     0  02:21      0.0169      0.0672       0.157
  HS02004862           JUNCTION      4.11    11.95     0  02:21      0.0224      0.0505       0.331
  HS02004856           JUNCTION      3.72     7.89     0  02:20      0.0127      0.0295       5.109
  HS02004852           JUNCTION      0.00     4.45     0  02:21           0      0.0169       0.283
  HS02004848           JUNCTION      7.91     7.91     0  02:23      0.0398      0.0398       0.105
  HS02004842           JUNCTION      0.00     4.47     0  00:03           0      0.0359      56.742
  HS02004837           JUNCTION     14.33    17.64     0  02:18       0.208       0.231       0.353
  HS02004830           JUNCTION      0.15    17.78     0  02:20     0.00423       0.222       0.559
  HS02004824           JUNCTION      8.80    26.47     0  02:23      0.0523       0.273       0.198
  HS02004817           JUNCTION      0.60    27.07     0  02:23      0.0169       0.289       6.116
  HS02004807           JUNCTION      9.48    35.62     0  02:22       0.031       0.303       1.411
  HS02004802           JUNCTION      0.00    35.67     0  02:24           0       0.299       1.372
  HS02004799           JUNCTION      7.26    80.54     0  02:19      0.0251       0.321       0.702
  HS02004792           JUNCTION     32.79    73.55     0  02:19       0.113       0.296       0.140
  HS02004788           JUNCTION     11.49    42.88     0  02:20      0.0819       0.185       0.212
  HS02004785           JUNCTION      0.15    31.94     0  02:19     0.00423       0.105       0.455
  HS02004777           JUNCTION      0.03    32.37     0  02:18    0.000846       0.105       5.154
  HS02004770           JUNCTION     27.76    33.64     0  02:16      0.0874       0.106       3.002
  HS02004480           JUNCTION      0.00    94.80     0  02:21           0       0.371       0.186
  HS02004479           JUNCTION      0.00    14.61     0  02:22           0      0.0622       1.183
  HS02004478           JUNCTION      0.00   130.16     0  02:22           0       0.655       0.100
  YS02001745           JUNCTION     40.77    40.77     0  03:01       0.484       0.484       0.074
  YS02001748           JUNCTION      0.04    40.81     0  03:01     0.00127       0.485       0.032
  YS02001751           JUNCTION      0.01   118.26     0  03:43     0.00031       0.643       0.293
  YS02001754           JUNCTION      0.26   259.11     0  03:44     0.00733        1.16       0.819
  YS02001762           JUNCTION      0.00    67.79     0  03:17           0       0.635       2.137
  YS02001765           JUNCTION      0.00    99.81     0  03:40           0       0.624       2.270
  YS02001767           JUNCTION      0.54    76.76     0  03:40      0.0151        0.63       3.196
  YS02001770           JUNCTION     53.19    61.23     0  02:32       0.579       0.603       2.745
  YS02001774           JUNCTION      0.00    26.95     0  02:29           0      0.0979      17.385
  YS02001779           JUNCTION      0.01    14.58     0  03:33    0.000141      0.0598       9.511
  YS02001882           JUNCTION      0.00     2.61     0  02:12           0     0.00355      69.200
  YS02001884           JUNCTION      0.00     7.87     0  02:08           0      0.0144      43.643
  YS02001759           JUNCTION     52.25   136.68     0  03:47       0.543        1.15       1.394
  YS02001887           JUNCTION     69.89    69.89     0  02:45       0.663        0.67       0.999
  YS02001890           JUNCTION      0.00    69.49     0  02:49           0       0.651       1.133
  YS02001898           JUNCTION      0.00    69.20     0  02:50           0        0.64       0.284
  YS02001901           JUNCTION      0.00    69.20     0  02:50           0        0.64       0.786
  YS02001904           JUNCTION      0.00    68.93     0  02:53           0        0.64       0.734
  YS02001907           JUNCTION      0.00   124.73     0  02:58           0        1.36       1.582
  YS02001910           JUNCTION      0.00    56.46     0  03:00           0       0.733       1.315
  YS02001915           JUNCTION     36.77    56.19     0  03:01       0.418       0.736       0.538
  YS02001918           JUNCTION      0.00    19.56     0  03:03           0       0.319       0.265
  YS02001619           JUNCTION     35.67    35.67     0  03:00       0.411       0.411       0.135
  YS02001629           JUNCTION      0.00    37.47     0  03:07           0       0.395       1.367
  YS02001641           JUNCTION      0.00    84.44     0  03:13           0       0.838       1.537
  YS02001644           JUNCTION     38.69   115.07     0  03:04       0.464        1.28       1.214
  YS02001652           JUNCTION      0.00    80.76     0  03:47           0       0.551       1.570
  YS02001655           JUNCTION      0.15    49.30     0  02:47     0.00434       0.491       0.680
  YS02001920           JUNCTION      2.87    19.57     0  03:02      0.0809       0.321       0.540
  YS02001923           JUNCTION      0.04    16.71     0  03:02     0.00106        0.24       0.095
  YS02001926           JUNCTION      0.05    16.71     0  03:01     0.00147       0.241       0.690
  YS02001929           JUNCTION     16.67    16.67     0  03:01       0.239       0.239       0.090
  YS02001658           JUNCTION      0.00    49.15     0  02:47           0       0.478       0.041
  YS02001661           JUNCTION      0.00    49.15     0  02:47           0       0.479       0.154
  YS02001664           JUNCTION     49.15    49.15     0  02:47       0.479       0.479       0.030
  YS02001622           JUNCTION      0.00    38.05     0  02:58           0       0.411       0.611
  YS02001633           JUNCTION     39.35    76.71     0  03:02       0.479        0.86       2.163
  YS02001649           JUNCTION      0.00   199.16     0  03:22           0        1.78       1.329
  YS02001757           JUNCTION      0.00   474.82     0  03:46           0        3.71       1.905
  YS02001895           JUNCTION      0.00    69.29     0  02:49           0       0.644       0.500
  YS02001625           JUNCTION      0.00    38.90     0  02:46           0       0.408       3.729
  YS02163301           JUNCTION      0.00    41.12     0  03:20           0       0.395       3.160
  YS02163601           JUNCTION      0.11    80.88     0  03:13      0.0031       0.842       2.279
  YS02164001           JUNCTION      0.00    83.91     0  03:13           0       0.832       1.405
  YS02001647           JUNCTION      0.00   120.32     0  03:05           0        1.26       0.928
  YSB1154              JUNCTION      7.96     7.96     0  02:17      0.0303      0.0318       4.761
  YSB6556              JUNCTION      0.00     7.83     0  02:20           0      0.0328       3.940
  YSB1174              JUNCTION      8.21     8.21     0  02:12      0.0222      0.0232       5.852
  YSB1171              JUNCTION      0.00    14.62     0  02:20           0      0.0616      11.426
  YS02006553           JUNCTION      0.00   124.87     0  03:02           0        1.35       1.030
  YS02006561           JUNCTION      0.00   183.07     0  02:56           0        1.91       0.028
  YS02006556           JUNCTION      0.00   125.02     0  03:02           0        1.35       0.738
  YS02006558           JUNCTION     58.92   183.08     0  02:56       0.604        1.93       0.223
  YS02001783           JUNCTION      0.00   183.06     0  02:56           0        1.91       0.065
  YS02001784           JUNCTION      1.06   184.12     0  02:57      0.0299        1.93       0.109
  YS02001786           JUNCTION      0.06   184.17     0  02:57     0.00159        1.93       0.106
  YS02001788           JUNCTION      0.07   184.23     0  02:58       0.002        1.93       0.059
  YS02001790           JUNCTION      0.15   184.38     0  02:58     0.00437        1.94       0.077
  YS02001791           JUNCTION      0.00   184.38     0  02:58           0        1.94       0.037
  YS02001793           JUNCTION      0.00   184.38     0  02:58           0        1.94       0.017
  WS02004139           JUNCTION      0.32   380.33     0  02:00     0.00905         7.9       0.476
  WSC                  OUTFALL       0.00   816.76     0  03:01           0        14.9       0.000
  3                    OUTFALL       0.00   263.42     0  02:57           0        1.25       0.000
  4                    OUTFALL       0.00    91.38     0  03:50           0        0.34       0.000
  5                    OUTFALL       0.00     0.00     0  00:00           0           0       0.000 ltr
  JK-storage           STORAGE       0.00   184.38     0  02:58           0        2.09     -26.696
  CC-storage           STORAGE       0.00   302.66     0  03:04           0        3.13     -33.571
  XR-storage           STORAGE     266.77   266.77     0  02:53        6.45        7.05     -10.748
  
  
  **********************
  Node Surcharge Summary
  **********************
  
  Surcharging occurs when water rises above the top of the highest conduit.
  ---------------------------------------------------------------------
                                               Max. Height   Min. Depth
                                   Hours       Above Crown    Below Rim
  Node                 Type      Surcharged         Meters       Meters
  ---------------------------------------------------------------------
  WS02006109           JUNCTION        1.43          0.019        1.801
  WS02006232           JUNCTION        1.50          0.034        1.446
  WS02006235           JUNCTION        0.63          0.007        1.283
  WS02006238           JUNCTION        1.08          0.027        1.403
  WS02006242           JUNCTION        0.88          0.022        0.798
  WS02006252           JUNCTION        2.12          0.191        0.909
  WS02006228           JUNCTION        1.24          0.018        2.182
  
  
  *********************
  Node Flooding Summary
  *********************
  
  No nodes were flooded.
  
  
  **********************
  Storage Volume Summary
  **********************
  
  --------------------------------------------------------------------------------------------------
                         Average     Avg  Evap Exfil       Maximum     Max    Time of Max    Maximum
                          Volume    Pcnt  Pcnt  Pcnt        Volume    Pcnt     Occurrence    Outflow
  Storage Unit           1000 m3    Full  Loss  Loss       1000 m3    Full    days hr:min        LPS
  --------------------------------------------------------------------------------------------------
  JK-storage               0.002       1     0     0         0.151      52       0  00:00     368.75
  CC-storage               0.036       0     0     0         0.331       2       0  03:35     400.00
  XR-storage               0.089      10     0     0         0.668      72       0  01:50     380.00
  
  
  ***********************
  Outfall Loading Summary
  ***********************
  
  -----------------------------------------------------------
                         Flow       Avg       Max       Total
                         Freq      Flow      Flow      Volume
  Outfall Node           Pcnt       LPS       LPS    10^6 ltr
  -----------------------------------------------------------
  WSC                   99.99    625.56    816.76      14.949
  3                     56.25    102.27    263.42       1.249
  4                     29.97     42.13     91.38       0.340
  5                      0.00      0.00      0.00       0.000
  -----------------------------------------------------------
  System                46.55    769.96   1079.66      16.539
  
  
  ********************
  Link Flow Summary
  ********************
  
  -----------------------------------------------------------------------------
                                 Maximum  Time of Max   Maximum    Max/    Max/
                                  |Flow|   Occurrence   |Veloc|    Full    Full
  Link                 Type          LPS  days hr:min     m/sec    Flow   Depth
  -----------------------------------------------------------------------------
  WS02003066WSF200     CONDUIT    413.70     0  04:03      2.69    0.07    0.20
  WS02006287WS02006284 CONDUIT    130.14     0  02:22      1.38    0.06    0.18
  WS02006284WS02006280 CONDUIT    130.24     0  02:22      1.63    0.05    0.16
  WS02006280WS02006229 CONDUIT    130.24     0  02:22      2.61    0.03    0.11
  WS02006229WS02006228 CONDUIT    414.62     0  03:48      0.83    1.37    1.00
  WS02006256WS02006235 CONDUIT    166.25     0  00:01      2.58    1.76    1.00
  WS02006253WS02006251 CONDUIT     52.02     0  05:19      0.41    0.16    0.89
  WS02006252WS02006251 CONDUIT    400.50     0  04:23      3.19    1.47    1.00
  WS02006251WS02006249 CONDUIT    403.07     0  03:50      1.18    1.16    0.87
  WS02006249WS02006248 CONDUIT    354.46     0  03:40      1.15    1.94    0.82
  WS02006248WS02006247 CONDUIT    348.76     0  03:41      1.11    0.76    0.86
  WS02006247WS02006245 CONDUIT    342.48     0  03:41      1.07    2.72    0.89
  WS02006245WS02006243 CONDUIT    336.01     0  03:41      1.07    0.99    0.90
  WS02006243WS02006242 CONDUIT    326.66     0  03:41      0.94    0.70    0.96
  WS02006242WS02006240 CONDUIT    317.83     0  03:41      0.87    1.26    0.98
  WS02006240WS02006239 CONDUIT    313.43     0  04:18      0.86    0.99    0.98
  WS02006239WS02006238 CONDUIT    313.47     0  04:19      0.81    1.00    1.00
  WS02006238WS02006235 CONDUIT    313.47     0  04:19      1.25    0.70    1.00
  WS02006235WS02006234 CONDUIT    380.71     0  03:45      1.03    4.02    0.97
  WS02006234WS02006232 CONDUIT    380.03     0  04:04      1.13    0.77    0.99
  WS02006232WS02006231 CONDUIT    380.04     0  04:04      1.04    0.80    0.91
  WS02006231WS02006230 CONDUIT    380.10     0  04:03      1.32    5.77    0.76
  WS02006230WS02006229 CONDUIT    390.50     0  04:03      1.01    8.69    1.00
  WS02006228WS02006109 CONDUIT    414.62     0  03:48      0.82    1.81    1.00
  WS02006116WS02004401 CONDUIT    414.10     0  03:55      0.73    0.57    0.74
  WS02006115WS02006116 CONDUIT    414.31     0  03:55      0.79    0.53    0.66
  WS02006113WS02006111 CONDUIT    425.93     0  03:49      2.25    0.51    0.40
  WS02006112WS02006115 CONDUIT    414.95     0  03:52      0.64    0.24    0.79
  WS02006111WS02006112 CONDUIT    416.81     0  03:49      1.32    0.20    0.65
  WS02006110WS02006113 CONDUIT    415.91     0  03:49      1.03    0.38    0.75
  WS02006109WS02006110 CONDUIT    415.86     0  03:48      0.84    0.80    0.95
  WS02004411WS02004412 CONDUIT    413.75     0  04:02      0.82    0.59    0.62
  WS02004401WS02004402 CONDUIT    414.00     0  03:56      0.77    0.50    0.77
  WS02004413WS02003067 CONDUIT    413.69     0  04:03      0.97    0.18    0.54
  WS02004412WS02004413 CONDUIT    413.72     0  04:02      0.70    0.28    0.70
  WS02004410WS02004411 CONDUIT    413.80     0  04:01      0.84    0.57    0.60
  WS02004409WS02004410 CONDUIT    413.88     0  04:00      0.87    0.54    0.59
  WS02004407WS02004409 CONDUIT    414.11     0  03:58      1.35    0.15    0.42
  WS02004406WS02004407 CONDUIT    414.11     0  03:58      0.89    0.19    0.57
  WS02004405WS02004406 CONDUIT    414.12     0  03:58      0.66    0.82    0.88
  WS02004404WS02004405 CONDUIT    414.09     0  03:57      0.84    4.06    0.88
  WS02004403WS02004404 CONDUIT    413.93     0  03:58      0.74    0.30    0.84
  WS02004402WS02004403 CONDUIT    413.96     0  03:57      0.75    0.59    0.80
  WS02004139WS02001211 CONDUIT    380.46     0  03:20      0.69    0.48    0.59
  WS02004138WS02004139 CONDUIT    380.01     0  02:00      2.94    0.08    0.43
  WS02003067WS02003066 CONDUIT    413.70     0  04:03      1.04    0.13    0.38
  WS02001213WS02003059 CONDUIT    388.43     0  03:20      0.68    0.64    0.75
  WS02001212WS02001213 CONDUIT    388.14     0  03:20      1.32    0.60    0.45
  WS02001211WS02001212 CONDUIT    387.98     0  03:20      0.78    0.30    0.64
  WS02003072WS02003073 CONDUIT    814.94     0  03:01      1.64    1.76    0.45
  WS02003069WS02003072 CONDUIT    814.94     0  03:00      1.55    0.39    0.47
  WS02003060WS02003069 CONDUIT    814.62     0  02:59      1.80    0.32    0.42
  WS02003059WS02003060 CONDUIT    388.86     0  03:21      0.93    0.25    0.63
  HS02004901HS02004770 CONDUIT      6.32     0  02:18      0.03    0.02    0.27
  HS02004876HS02004881 CONDUIT     20.95     0  02:21      0.40    0.22    0.07
  HS02004870HS02004876 CONDUIT     16.57     0  02:21      0.28    0.01    0.08
  HS02004842HS02004848 CONDUIT      3.70     0  02:32      0.02    0.00    0.26
  HS02004837HS02004842 CONDUIT      4.47     0  00:03      0.41    0.00    0.28
  HS02004830HS02004837 CONDUIT     17.63     0  02:20      0.39    0.02    0.06
  HS02004824HS02004830 CONDUIT     17.78     0  02:20      0.43    0.02    0.06
  HS02004817HS02004824 CONDUIT     26.47     0  02:23      0.17    0.01    0.37
  HS02004770HS02004777 CONDUIT     32.34     0  02:18      0.17    0.06    0.28
  HS02004799HS02004480 CONDUIT     80.38     0  02:20      0.46    0.10    0.25
  HS02004792HS02004799 CONDUIT     73.51     0  02:20      0.54    0.05    0.20
  HS02004788HS02004792 CONDUIT     42.84     0  02:21      0.70    0.03    0.09
  HS02004785HS02004788 CONDUIT     31.80     0  02:21      0.41    0.24    0.11
  HS02004777HS02004785 CONDUIT     31.79     0  02:19      0.20    0.04    0.23
  HS02004480HS02004478 CONDUIT     94.78     0  02:21      0.79    0.40    0.17
  HS02004479HS02004480 CONDUIT     14.75     0  02:23      0.16    0.01    0.25
  HS02004862HS02004870 CONDUIT     11.91     0  02:22      0.38    0.01    0.04
  HS02004848HS02004852 CONDUIT      4.45     0  02:21      0.25    0.01    0.03
  HS02004856HS02004862 CONDUIT      7.87     0  02:22      0.27    0.01    0.04
  HS02004852HS02004856 CONDUIT      4.41     0  02:23      0.08    0.01    0.08
  HS02004802HS02004478 CONDUIT     35.83     0  02:25      0.24    0.03    0.21
  HS02004478WS02006287 CONDUIT    130.15     0  02:22      1.07    0.04    0.14
  HS02004817HS02004807 CONDUIT     27.30     0  02:26      0.08    0.02    0.47
  HS02004807HS02004802 CONDUIT     35.67     0  02:24      0.20    0.07    0.26
  YS02001759YS02001757 CONDUIT    116.70     0  03:08      0.16    0.08    0.91
  YS02001762YS02001759 CONDUIT    101.26     0  03:47      0.17    0.12    0.83
  YS02001765YS02001762 CONDUIT     67.79     0  03:17      0.22    0.06    0.80
  YS02001770YS02001767 CONDUIT     61.83     0  03:08      0.32    0.24    0.72
  YS02001774YS02001770 CONDUIT     26.95     0  02:29      0.13    0.02    0.74
  YS02001779YS02001774 CONDUIT     14.57     0  03:33      0.08    0.01    0.66
  YS02001649YS02001757 CONDUIT    182.15     0  03:20      0.25    0.11    0.89
  YS02001767YS02001765 CONDUIT     99.81     0  03:40      0.26    0.13    0.74
  YS02006561YS02001783 CONDUIT    183.06     0  02:56      1.55    0.09    0.29
  YS02001783YS02001784 CONDUIT    183.06     0  02:57      1.03    0.25    0.38
  YS02001784YS02001785 CONDUIT    184.11     0  02:57      1.08    0.43    0.37
  YS02001788YS02001790 CONDUIT    184.23     0  02:58      1.63    0.14    0.28
  YS02001790YS02001791 CONDUIT    184.38     0  02:58      1.86    0.20    0.25
  YS02001791YS02001793 CONDUIT    184.38     0  02:58      3.35    0.08    0.17
  YS02001910YS02001907 CONDUIT     56.52     0  03:01      0.49    0.03    0.63
  YS02001786YS02001788 CONDUIT    184.16     0  02:58      1.48    0.35    0.30
  YS02001915YS02001910 CONDUIT     56.46     0  03:00      0.44    0.03    0.42
  YS02001918YS02001915 CONDUIT     19.55     0  03:04      0.44    0.01    0.19
  YS02001923YS02001920 CONDUIT     16.70     0  03:02      0.33    0.01    0.11
  YS02001926YS02001923 CONDUIT     16.67     0  03:02      0.39    0.02    0.10
  YS02001929YS02001926 CONDUIT     16.66     0  03:01      0.41    0.01    0.10
  YS02001920YS02001918 CONDUIT     19.56     0  03:03      0.36    0.02    0.12
  YS02001629YS02163301 CONDUIT     41.12     0  03:20      0.09    0.05    0.68
  YS02001619YS02001622 CONDUIT     38.05     0  02:58      0.57    0.06    0.30
  YS02001622YS02001625 CONDUIT     38.90     0  02:46      0.19    0.02    0.46
  YS02001625YS02001629 CONDUIT     37.47     0  03:07      0.19    0.02    0.45
  YS02163301YS02001633 CONDUIT     39.37     0  02:38      0.10    0.04    0.73
  YS02163601YS02164001 CONDUIT     83.91     0  03:13      0.13    0.07    0.79
  YS02164001YS02001641 CONDUIT     84.44     0  03:13      0.13    0.12    0.77
  YS02001641YS02001644 CONDUIT     78.23     0  03:10      0.13    0.25    0.78
  YS02001647YS02001649 CONDUIT    124.31     0  03:09      0.21    0.07    0.71
  YS02006553YS02006556 CONDUIT    125.02     0  03:02      0.21    0.11    0.72
  YS02006556YS02006558 CONDUIT    125.12     0  03:02      0.20    0.10    0.74
  YSB6556YSB1171       CONDUIT      7.92     0  02:23      0.04    0.01    0.51
  YS02001907YS02006553 CONDUIT    124.87     0  03:02      0.17    0.15    0.81
  YS02006558YS02006561 CONDUIT    183.07     0  02:56      2.00    0.40    0.36
  YS02001633YS02163601 CONDUIT     80.77     0  03:13      0.13    0.08    0.78
  YS02001644YS02001647 CONDUIT    120.32     0  03:05      0.21    0.07    0.69
  YS02001745YS02001748 CONDUIT     40.77     0  03:01      1.22    0.02    0.09
  YS02001748YS02001751 CONDUIT     56.48     0  03:23      0.96    0.03    0.23
  YS02001751YS02001754 CONDUIT    132.23     0  03:44      0.89    0.06    0.45
  YS02001754YS02001757 CONDUIT    197.30     0  03:43      0.33    0.08    0.79
  YS02001882YS02001884 CONDUIT      2.61     0  02:12      0.06    0.00    0.36
  YS02001884YS02001887 CONDUIT      7.87     0  02:08      0.06    0.01    0.45
  YS02001890YS02001895 CONDUIT     69.29     0  02:49      0.22    0.03    0.42
  YS02001895YS02001898 CONDUIT     69.20     0  02:50      0.44    0.12    0.29
  YS02001898YS02001901 CONDUIT     69.20     0  02:50      0.27    0.04    0.36
  YS02001901YS02001904 CONDUIT     68.93     0  02:53      0.22    0.11    0.42
  YS02001904YS02001907 CONDUIT     69.04     0  02:53      0.15    0.02    0.58
  YS02001887YS02001890 CONDUIT     69.49     0  02:49      0.18    0.12    0.51
  YS02001652YS02001649 CONDUIT     82.96     0  03:34      0.30    0.04    0.72
  YS02001655YS02001652 CONDUIT     67.44     0  03:34      0.95    0.03    0.48
  YS02001658YS02001655 CONDUIT     49.15     0  02:47      1.11    0.02    0.23
  YS02001661YS02001658 CONDUIT     49.15     0  02:47      1.24    0.02    0.10
  YS02001664YS02001661 CONDUIT     49.15     0  02:47      0.85    0.02    0.13
  YSB1154YSB6556       CONDUIT      7.83     0  02:20      0.19    0.01    0.40
  YSB1174YSB1171       CONDUIT      7.45     0  02:13      0.04    0.01    0.52
  YSB1171HS02004479    CONDUIT     14.61     0  02:22      0.54    0.01    0.40
  HS02004881HS02006253 CONDUIT     23.53     0  02:21      1.37    0.00    0.22
  YS02001793JiankangQianchi CONDUIT    184.38     0  02:58     11.23    0.01    0.50
  YS02001757CaochengTiaoxuchi CONDUIT    302.66     0  03:04      0.78    0.13    0.54
  WSF200WS02003060     CONDUIT    413.72     0  04:03      1.50    0.09    0.30
  1                    CONDUIT    816.76     0  03:01      3.15    0.28    0.36
  2                    CONDUIT     91.38     0  03:50      4.73    0.22    0.32
  3                    CONDUIT    263.42     0  02:57      8.43    0.42    0.46
  4                    CONDUIT      0.00     0  00:00      0.00    0.00    0.00
  CC-Pump-1            PUMP       200.00     0  03:40              1.00
  CC-Pump-2            PUMP       200.00     0  02:37              1.00
  JK-Pump-1            PUMP       300.00     0  00:00              1.00
  JK-Pump-2            PUMP       184.38     0  02:58              0.61
  XR-Pump-1            PUMP        95.00     0  00:00              1.00
  XR-Pump-2            PUMP        95.00     0  02:00              1.00
  XR-Pump-3            PUMP        95.00     0  00:00              1.00
  XR-Pump-4            PUMP        95.00     0  02:00              1.00
  
  
  ***************************
  Flow Classification Summary
  ***************************
  
  -------------------------------------------------------------------------------------
                      Adjusted    ---------- Fraction of Time in Flow Class ---------- 
                       /Actual         Up    Down  Sub   Sup   Up    Down  Norm  Inlet 
  Conduit               Length    Dry  Dry   Dry   Crit  Crit  Crit  Crit  Ltd   Ctrl  
  -------------------------------------------------------------------------------------
  WS02003066WSF200        1.00   0.06  0.00  0.00  0.00  0.94  0.00  0.00  0.76  0.00
  WS02006287WS02006284    1.00   0.04  0.02  0.00  0.74  0.21  0.00  0.00  0.80  0.00
  WS02006284WS02006280    1.00   0.05  0.00  0.00  0.00  0.00  0.00  0.95  0.00  0.00
  WS02006280WS02006229    1.00   0.05  0.00  0.00  0.00  0.00  0.00  0.95  0.00  0.00
  WS02006229WS02006228    1.00   0.00  0.00  0.00  0.99  0.00  0.00  0.01  0.00  0.00
  WS02006256WS02006235    1.00   0.00  0.00  0.00  1.00  0.00  0.00  0.00  0.00  0.00
  WS02006253WS02006251    1.00   0.03  0.01  0.00  0.95  0.00  0.00  0.00  0.00  0.00
  WS02006252WS02006251    1.00   0.10  0.00  0.00  0.00  0.00  0.90  0.00  0.00  0.00
  WS02006251WS02006249    1.00   0.00  0.00  0.00  1.00  0.00  0.00  0.00  0.30  0.00
  WS02006249WS02006248    1.00   0.00  0.02  0.00  0.89  0.00  0.09  0.00  0.00  0.00
  WS02006248WS02006247    1.00   0.02  0.00  0.00  0.97  0.00  0.00  0.00  0.19  0.00
  WS02006247WS02006245    1.00   0.02  0.00  0.00  0.98  0.00  0.00  0.00  0.00  0.00
  WS02006245WS02006243    1.00   0.01  0.00  0.00  0.94  0.00  0.00  0.04  0.02  0.00
  WS02006243WS02006242    1.00   0.01  0.00  0.00  0.99  0.00  0.00  0.00  0.27  0.00
  WS02006242WS02006240    1.00   0.00  0.00  0.00  1.00  0.00  0.00  0.00  0.00  0.00
  WS02006240WS02006239    1.00   0.00  0.00  0.00  0.95  0.00  0.00  0.05  0.01  0.00
  WS02006239WS02006238    1.00   0.00  0.00  0.00  1.00  0.00  0.00  0.00  0.00  0.00
  WS02006238WS02006235    1.00   0.00  0.00  0.00  1.00  0.00  0.00  0.00  0.00  0.00
  WS02006235WS02006234    1.00   0.00  0.00  0.00  0.95  0.00  0.05  0.00  0.00  0.00
  WS02006234WS02006232    1.00   0.00  0.00  0.00  1.00  0.00  0.00  0.00  0.17  0.00
  WS02006232WS02006231    1.00   0.00  0.00  0.00  0.99  0.00  0.00  0.00  0.00  0.00
  WS02006231WS02006230    1.00   0.00  0.00  0.00  0.56  0.00  0.44  0.00  0.00  0.00
  WS02006230WS02006229    1.00   0.00  0.00  0.00  0.98  0.00  0.00  0.02  0.01  0.00
  WS02006228WS02006109    1.00   0.00  0.00  0.00  1.00  0.00  0.00  0.00  0.00  0.00
  WS02006116WS02004401    1.00   0.03  0.00  0.00  0.97  0.00  0.00  0.00  0.00  0.00
  WS02006115WS02006116    1.00   0.03  0.00  0.00  0.97  0.00  0.00  0.01  0.00  0.00
  WS02006113WS02006111    1.00   0.02  0.00  0.00  0.00  0.98  0.00  0.00  0.11  0.00
  WS02006112WS02006115    1.00   0.02  0.00  0.00  0.97  0.00  0.00  0.00  0.00  0.00
  WS02006111WS02006112    1.00   0.02  0.00  0.00  0.97  0.00  0.00  0.00  0.98  0.00
  WS02006110WS02006113    1.00   0.01  0.01  0.00  0.98  0.00  0.00  0.00  0.00  0.00
  WS02006109WS02006110    1.00   0.00  0.01  0.00  0.98  0.00  0.01  0.00  0.00  0.00
  WS02004411WS02004412    1.00   0.04  0.00  0.00  0.96  0.00  0.00  0.00  0.00  0.00
  WS02004401WS02004402    1.00   0.03  0.00  0.00  0.97  0.00  0.00  0.00  0.00  0.00
  WS02004413WS02003067    1.00   0.04  0.02  0.00  0.00  0.00  0.94  0.00  0.00  0.00
  WS02004412WS02004413    1.00   0.04  0.00  0.00  0.96  0.00  0.00  0.00  0.03  0.00
  WS02004410WS02004411    1.00   0.04  0.00  0.00  0.96  0.00  0.00  0.00  0.04  0.00
  WS02004409WS02004410    1.00   0.04  0.00  0.00  0.96  0.00  0.00  0.00  0.04  0.00
  WS02004407WS02004409    1.00   0.04  0.00  0.00  0.96  0.00  0.00  0.00  0.89  0.00
  WS02004406WS02004407    1.00   0.00  0.04  0.00  0.96  0.00  0.00  0.00  0.00  0.00
  WS02004405WS02004406    1.00   0.00  0.00  0.00  1.00  0.00  0.00  0.00  0.00  0.00
  WS02004404WS02004405    1.00   0.00  0.00  0.00  1.00  0.00  0.00  0.00  0.00  0.00
  WS02004403WS02004404    1.00   0.00  0.03  0.00  0.97  0.00  0.00  0.00  0.01  0.00
  WS02004402WS02004403    1.00   0.03  0.00  0.00  0.97  0.00  0.00  0.00  0.00  0.00
  WS02004139WS02001211    1.00   0.00  0.00  0.00  0.99  0.00  0.00  0.00  0.00  0.00
  WS02004138WS02004139    1.00   0.00  0.00  0.00  0.99  0.01  0.00  0.00  1.00  0.00
  WS02003067WS02003066    1.00   0.06  0.00  0.00  0.94  0.00  0.00  0.00  0.00  0.00
  WS02001213WS02003059    1.00   0.00  0.00  0.00  0.99  0.00  0.00  0.00  0.00  0.00
  WS02001212WS02001213    1.00   0.00  0.00  0.00  0.93  0.00  0.07  0.00  0.00  0.00
  WS02001211WS02001212    1.00   0.00  0.00  0.00  1.00  0.00  0.00  0.00  0.00  0.00
  WS02003072WS02003073    1.00   0.00  0.00  0.00  0.00  0.00  0.00  1.00  0.00  0.00
  WS02003069WS02003072    1.00   0.00  0.00  0.00  0.99  0.01  0.00  0.00  0.23  0.00
  WS02003060WS02003069    1.00   0.00  0.00  0.00  0.99  0.01  0.00  0.00  0.20  0.00
  WS02003059WS02003060    1.00   0.00  0.00  0.00  1.00  0.00  0.00  0.00  0.01  0.00
  HS02004901HS02004770    1.00   0.05  0.00  0.00  0.95  0.00  0.00  0.00  0.03  0.00
  HS02004876HS02004881    1.00   0.02  0.00  0.00  0.98  0.00  0.00  0.00  0.00  0.00
  HS02004870HS02004876    1.00   0.01  0.00  0.00  0.99  0.00  0.00  0.00  0.95  0.00
  HS02004842HS02004848    1.00   0.00  0.05  0.00  0.95  0.00  0.00  0.00  0.71  0.00
  HS02004837HS02004842    1.00   0.00  0.00  0.00  0.99  0.01  0.00  0.00  0.11  0.00
  HS02004830HS02004837    1.00   0.00  0.00  0.00  1.00  0.00  0.00  0.00  0.99  0.00
  HS02004824HS02004830    1.00   0.00  0.00  0.00  1.00  0.00  0.00  0.00  0.00  0.00
  HS02004817HS02004824    1.00   0.00  0.00  0.00  1.00  0.00  0.00  0.00  1.00  0.00
  HS02004770HS02004777    1.00   0.00  0.05  0.00  0.95  0.00  0.00  0.00  0.08  0.00
  HS02004799HS02004480    1.00   0.00  0.03  0.00  0.94  0.00  0.03  0.00  0.00  0.00
  HS02004792HS02004799    1.00   0.00  0.00  0.00  0.99  0.01  0.00  0.00  0.98  0.00
  HS02004788HS02004792    1.00   0.00  0.00  0.00  0.99  0.01  0.00  0.00  0.98  0.00
  HS02004785HS02004788    1.00   0.00  0.00  0.00  1.00  0.00  0.00  0.00  0.00  0.00
  HS02004777HS02004785    1.00   0.00  0.00  0.00  1.00  0.00  0.00  0.00  0.22  0.00
  HS02004480HS02004478    1.00   0.05  0.00  0.00  0.76  0.00  0.00  0.19  0.00  0.00
  HS02004479HS02004480    1.00   0.03  0.00  0.00  0.97  0.00  0.00  0.00  0.16  0.00
  HS02004862HS02004870    1.00   0.00  0.00  0.00  1.00  0.00  0.00  0.00  0.05  0.00
  HS02004848HS02004852    1.00   0.05  0.00  0.00  0.95  0.00  0.00  0.00  0.70  0.00
  HS02004856HS02004862    1.00   0.00  0.07  0.00  0.93  0.00  0.00  0.00  0.73  0.00
  HS02004852HS02004856    1.00   0.05  0.01  0.00  0.95  0.00  0.00  0.00  0.82  0.00
  HS02004802HS02004478    1.00   0.05  0.01  0.00  0.95  0.00  0.00  0.00  0.00  0.00
  HS02004478WS02006287    1.00   0.06  0.00  0.00  0.94  0.00  0.00  0.00  0.81  0.00
  HS02004817HS02004807    1.00   0.00  0.05  0.00  0.95  0.00  0.00  0.00  0.00  0.00
  HS02004807HS02004802    1.00   0.05  0.00  0.00  0.95  0.00  0.00  0.00  0.01  0.00
  YS02001759YS02001757    1.00   0.00  0.00  0.00  1.00  0.00  0.00  0.00  0.17  0.00
  YS02001762YS02001759    1.00   0.00  0.00  0.00  1.00  0.00  0.00  0.00  0.05  0.00
  YS02001765YS02001762    1.00   0.00  0.00  0.00  1.00  0.00  0.00  0.00  0.23  0.00
  YS02001770YS02001767    1.00   0.00  0.00  0.00  1.00  0.00  0.00  0.00  0.00  0.00
  YS02001774YS02001770    1.00   0.00  0.05  0.00  0.94  0.00  0.00  0.00  0.07  0.00
  YS02001779YS02001774    1.00   0.00  0.00  0.00  1.00  0.00  0.00  0.00  0.28  0.00
  YS02001649YS02001757    1.00   0.00  0.00  0.00  1.00  0.00  0.00  0.00  0.19  0.00
  YS02001767YS02001765    1.00   0.00  0.00  0.00  1.00  0.00  0.00  0.00  0.01  0.00
  YS02006561YS02001783    1.00   0.07  0.00  0.00  0.00  0.93  0.00  0.00  0.72  0.00
  YS02001783YS02001784    1.00   0.00  0.07  0.00  0.93  0.00  0.00  0.00  0.08  0.00
  YS02001784YS02001785    1.00   0.00  0.00  0.00  1.00  0.00  0.00  0.00  0.26  0.00
  YS02001788YS02001790    1.00   0.00  0.00  0.00  0.08  0.92  0.00  0.00  0.99  0.00
  YS02001790YS02001791    1.00   0.00  0.00  0.00  0.02  0.98  0.00  0.00  0.38  0.00
  YS02001791YS02001793    1.00   0.00  0.00  0.00  0.00  1.00  0.00  0.00  0.00  0.00
  YS02001910YS02001907    1.00   0.00  0.00  0.00  0.97  0.00  0.00  0.03  0.13  0.00
  YS02001786YS02001788    1.00   0.00  0.00  0.00  0.08  0.92  0.00  0.00  0.00  0.00
  YS02001915YS02001910    1.00   0.00  0.00  0.00  0.99  0.01  0.00  0.00  0.25  0.00
  YS02001918YS02001915    1.00   0.00  0.01  0.00  0.98  0.02  0.00  0.00  0.80  0.00
  YS02001923YS02001920    1.00   0.00  0.00  0.00  1.00  0.00  0.00  0.00  1.00  0.00
  YS02001926YS02001923    1.00   0.00  0.04  0.00  0.00  0.00  0.96  0.00  0.00  0.00
  YS02001929YS02001926    1.00   0.00  0.05  0.00  0.95  0.00  0.00  0.00  0.86  0.00
  YS02001920YS02001918    1.00   0.00  0.01  0.00  0.99  0.00  0.00  0.00  0.00  0.00
  YS02001629YS02163301    1.00   0.06  0.00  0.00  0.93  0.00  0.00  0.00  0.00  0.00
  YS02001619YS02001622    1.00   0.05  0.00  0.00  0.95  0.00  0.00  0.00  0.00  0.00
  YS02001622YS02001625    1.00   0.05  0.00  0.00  0.95  0.00  0.00  0.00  0.14  0.00
  YS02001625YS02001629    1.00   0.05  0.03  0.00  0.90  0.00  0.02  0.00  0.00  0.00
  YS02163301YS02001633    1.00   0.00  0.06  0.00  0.94  0.00  0.00  0.00  0.00  0.00
  YS02163601YS02164001    1.00   0.00  0.04  0.00  0.96  0.00  0.00  0.00  0.00  0.00
  YS02164001YS02001641    1.00   0.01  0.03  0.00  0.96  0.00  0.00  0.00  0.07  0.00
  YS02001641YS02001644    1.00   0.00  0.01  0.00  0.99  0.00  0.00  0.00  0.00  0.00
  YS02001647YS02001649    1.00   0.00  0.07  0.00  0.93  0.00  0.00  0.00  0.01  0.00
  YS02006553YS02006556    1.00   0.02  0.00  0.00  0.98  0.00  0.00  0.00  0.03  0.00
  YS02006556YS02006558    1.00   0.00  0.00  0.00  1.00  0.00  0.00  0.00  0.00  0.00
  YSB6556YSB1171          1.00   0.03  0.02  0.00  0.95  0.00  0.00  0.00  0.00  0.00
  YS02001907YS02006553    1.00   0.00  0.02  0.00  0.97  0.00  0.00  0.00  0.00  0.00
  YS02006558YS02006561    1.00   0.07  0.00  0.00  0.00  0.93  0.00  0.00  0.71  0.00
  YS02001633YS02163601    1.00   0.00  0.01  0.00  0.99  0.00  0.00  0.00  0.20  0.00
  YS02001644YS02001647    1.00   0.00  0.07  0.00  0.93  0.00  0.00  0.00  0.00  0.00
  YS02001745YS02001748    1.00   0.00  0.00  0.00  0.00  0.00  0.00  1.00  0.00  0.00
  YS02001748YS02001751    1.00   0.00  0.00  0.00  0.97  0.03  0.00  0.00  0.77  0.00
  YS02001751YS02001754    1.00   0.00  0.00  0.00  0.92  0.00  0.00  0.08  0.02  0.00
  YS02001754YS02001757    1.00   0.00  0.00  0.00  0.99  0.01  0.00  0.00  0.27  0.00
  YS02001882YS02001884    1.00   0.06  0.00  0.00  0.93  0.00  0.00  0.00  0.00  0.00
  YS02001884YS02001887    1.00   0.03  0.01  0.00  0.96  0.00  0.00  0.00  0.00  0.00
  YS02001890YS02001895    1.00   0.00  0.06  0.00  0.93  0.00  0.00  0.00  0.00  0.00
  YS02001895YS02001898    1.00   0.07  0.00  0.00  0.92  0.00  0.01  0.00  0.00  0.00
  YS02001898YS02001901    1.00   0.06  0.00  0.00  0.93  0.00  0.00  0.00  0.02  0.00
  YS02001901YS02001904    1.00   0.06  0.00  0.00  0.94  0.00  0.00  0.00  0.00  0.00
  YS02001904YS02001907    1.00   0.00  0.06  0.00  0.94  0.00  0.00  0.00  0.00  0.00
  YS02001887YS02001890    1.00   0.00  0.00  0.00  0.97  0.00  0.03  0.00  0.00  0.00
  YS02001652YS02001649    1.00   0.00  0.00  0.00  1.00  0.00  0.00  0.00  0.27  0.00
  YS02001655YS02001652    1.00   0.00  0.00  0.00  0.92  0.00  0.00  0.08  0.02  0.00
  YS02001658YS02001655    1.00   0.00  0.06  0.00  0.91  0.03  0.00  0.00  0.78  0.00
  YS02001661YS02001658    1.00   0.06  0.00  0.00  0.00  0.94  0.00  0.00  0.72  0.00
  YS02001664YS02001661    1.00   0.05  0.00  0.00  0.95  0.00  0.00  0.00  0.86  0.00
  YSB1154YSB6556          1.00   0.05  0.00  0.00  0.95  0.00  0.00  0.00  0.02  0.00
  YSB1174YSB1171          1.00   0.03  0.01  0.00  0.96  0.00  0.00  0.00  0.00  0.00
  YSB1171HS02004479       1.00   0.03  0.00  0.00  0.97  0.00  0.00  0.00  0.13  0.00
  HS02004881HS02006253    1.00   0.03  0.00  0.00  0.86  0.01  0.00  0.10  0.65  0.00
  YS02001793JiankangQianchi    1.00   0.00  0.00  0.00  0.02  0.98  0.00  0.00  0.02  0.00
  YS02001757CaochengTiaoxuchi    1.00   0.00  0.10  0.00  0.90  0.00  0.00  0.00  0.00  0.00
  WSF200WS02003060        1.00   0.00  0.06  0.00  0.94  0.00  0.00  0.00  0.38  0.00
  1                       1.00   0.00  0.00  0.00  0.00  1.00  0.00  0.00  0.26  0.00
  2                       1.00   0.70  0.00  0.00  0.00  0.30  0.00  0.00  0.06  0.00
  3                       1.00   0.44  0.00  0.00  0.00  0.56  0.00  0.00  0.28  0.00
  4                       1.00   1.00  0.00  0.00  0.00  0.00  0.00  0.00  0.00  0.00
  
  
  *************************
  Conduit Surcharge Summary
  *************************
  
  ----------------------------------------------------------------------------
                                                           Hours        Hours 
                         --------- Hours Full --------   Above Full   Capacity
  Conduit                Both Ends  Upstream  Dnstream   Normal Flow   Limited
  ----------------------------------------------------------------------------
  WS02006229WS02006228        1.24      1.63      1.24      3.50         1.24
  WS02006256WS02006235        5.62      5.62      6.54      1.55         0.01
  WS02006252WS02006251        1.06      1.06      2.12      1.79         0.01
  WS02006251WS02006249        0.01      0.01      0.01      1.05         0.01
  WS02006249WS02006248        0.01      0.01      0.01      4.02         0.01
  WS02006247WS02006245        0.01      0.01      0.01      5.14         0.01
  WS02006243WS02006242        0.01      0.01      0.88      0.01         0.01
  WS02006242WS02006240        0.01      0.01      1.28      2.11         0.01
  WS02006239WS02006238        1.03      1.03      1.08      0.39         0.42
  WS02006238WS02006235        0.88      0.88      1.45      0.01         0.01
  WS02006235WS02006234        0.01      0.01      0.63      5.65         0.01
  WS02006234WS02006232        0.01      0.01      1.50      0.01         0.01
  WS02006232WS02006231        0.01      0.01      1.50      0.01         0.01
  WS02006231WS02006230        0.01      0.01      0.01      5.64         0.01
  WS02006230WS02006229        2.78      3.25      2.78      5.73         2.78
  WS02006228WS02006109        1.43      2.33      1.43      5.01         1.43
  WS02006111WS02006112        0.01      0.01      3.78      0.01         0.01
  WS02006110WS02006113        0.01      0.01      1.96      0.01         0.01
  WS02006109WS02006110        0.01      0.01      2.33      0.01         0.01
  WS02004404WS02004405        0.01      0.01      0.01      5.49         0.01
  WS02003072WS02003073        0.01      0.01      0.01      5.43         0.01
  YS02001793JiankangQianchi        0.01      0.01      0.09      0.01         0.01
  
  
  ***************
  Pumping Summary
  ***************
  
  ---------------------------------------------------------------------------------------------------------
                                                  Min       Avg       Max     Total     Power    % Time Off
                        Percent   Number of      Flow      Flow      Flow    Volume     Usage    Pump Curve
  Pump                 Utilized   Start-Ups       LPS       LPS       LPS  10^6 ltr     Kw-hr    Low   High
  ---------------------------------------------------------------------------------------------------------
  CC-Pump-1               55.32           1      0.00    128.75    200.00     2.035      9.38    0.0  100.0
  CC-Pump-2               68.64           1      0.00    138.02    200.00     2.680     12.10    0.0  100.0
  JK-Pump-1               46.81           1      0.00    142.74    300.00     0.966     18.30    0.0    0.0
  JK-Pump-2               76.59           1      0.00     92.16    184.38     1.880     36.64    0.0    0.0
  XR-Pump-1              100.00           1      0.00     92.64     95.00     2.622     54.14    0.0    0.0
  XR-Pump-2               76.59           1      0.00     94.78     95.00     2.023     48.28    0.0    0.0
  XR-Pump-3               46.81           1      0.00     90.56     95.00     1.226     18.34    0.0    0.0
  XR-Pump-4               76.59           1      0.00     94.78     95.00     2.023     48.28    0.0    0.0
  

  Analysis begun on:  Tue Dec 21 17:59:15 2021
  Analysis ended on:  Tue Dec 21 17:59:18 2021
  Total elapsed time: 00:00:03