
  EPA STORM WATER MANAGEMENT MODEL - VERSION 5.1 (Build 5.3.0.dev0)
  --------------------------------------------------------------

  WARNING 04: minimum elevation drop used for Conduit WS02004404WS02004405
  WARNING 03: negative offset ignored for Link YS02001904YS02001907
  
  *********************************************************
  NOTE: The summary statistics displayed in this report are
  based on results found at every computational time step,  
  not just on results from each reporting time step.
  *********************************************************
  
  ****************
  Analysis Options
  ****************
  Flow Units ............... LPS
  Process Models:
    Rainfall/Runoff ........ YES
    RDII ................... NO
    Snowmelt ............... NO
    Groundwater ............ NO
    Flow Routing ........... YES
    Ponding Allowed ........ NO
    Water Quality .......... NO
  Infiltration Method ...... HORTON
  Flow Routing Method ...... DYNWAVE
  Surcharge Method ......... EXTRAN
  Starting Date ............ 08/28/2015 08:00:00
  Ending Date .............. 08/28/2015 15:50:00
  Antecedent Dry Days ...... 8.0
  Report Time Step ......... 00:01:00
  Wet Time Step ............ 00:01:00
  Dry Time Step ............ 00:01:00
  Routing Time Step ........ 5.00 sec
  Variable Time Step ....... YES
  Maximum Trials ........... 8
  Number of Threads ........ 4
  Head Tolerance ........... 0.001500 m
  
  
  **************************        Volume         Depth
  Runoff Quantity Continuity     hectare-m            mm
  **************************     ---------       -------
  Total Precipitation ......         3.047         6.671
  Evaporation Loss .........         0.000         0.000
  Infiltration Loss ........         0.769         1.684
  Surface Runoff ...........         1.365         2.989
  Final Storage ............         0.913         1.999
  Continuity Error (%) .....        -0.018
  
  
  **************************        Volume        Volume
  Flow Routing Continuity        hectare-m      10^6 ltr
  **************************     ---------     ---------
  Dry Weather Inflow .......         0.616         6.165
  Wet Weather Inflow .......         1.365        13.646
  Groundwater Inflow .......         0.000         0.000
  RDII Inflow ..............         0.000         0.000
  External Inflow ..........         0.102         1.024
  External Outflow .........         2.084        20.841
  Flooding Loss ............         0.000         0.000
  Evaporation Loss .........         0.000         0.000
  Exfiltration Loss ........         0.000         0.000
  Initial Stored Volume ....         0.076         0.761
  Final Stored Volume ......         0.485         4.847
  Continuity Error (%) .....       -18.953
  
  
  *************************
  Highest Continuity Errors
  *************************
  Node JK-storage (-71.96%)
  Node YS02001774 (26.58%)
  Node HS02004842 (26.05%)
  Node YS02001884 (20.57%)
  Node YSB1171 (6.05%)
  
  
  ***************************
  Time-Step Critical Elements
  ***************************
  Link 3 (58.72%)
  Link WS02006252WS02006251 (32.93%)
  Link YS02001793JiankangQianchi (2.28%)
  Link WS02006280WS02006229 (1.75%)
  
  
  ********************************
  Highest Flow Instability Indexes
  ********************************
  Link WS02006113WS02006111 (39)
  Link WS02006111WS02006112 (21)
  Link YS02006558YS02006561 (17)
  Link YS02001629YS02163301 (8)
  Link YS02164001YS02001641 (8)
  
  
  *************************
  Routing Time Step Summary
  *************************
  Minimum Time Step           :     0.15 sec
  Average Time Step           :     0.88 sec
  Maximum Time Step           :     5.00 sec
  Percent in Steady State     :    -0.00
  Average Iterations per Step :     3.11
  Percent Not Converging      :    13.06
  
  
  ***************************
  Subcatchment Runoff Summary
  ***************************
  
  ------------------------------------------------------------------------------------------------------------------------------
                            Total      Total      Total      Total     Imperv       Perv      Total       Total     Peak  Runoff
                           Precip      Runon       Evap      Infil     Runoff     Runoff     Runoff      Runoff   Runoff   Coeff
  Subcatchment                 mm         mm         mm         mm         mm         mm         mm    10^6 ltr      LPS
  ------------------------------------------------------------------------------------------------------------------------------
  sub0                       6.67       0.00       0.00       0.47       4.94       0.00       4.94        0.00     1.69   0.740
  sub1                       6.67       0.00       0.00       0.73       4.68       0.00       4.68        0.03     8.99   0.702
  sub2                       6.67       0.00       0.00       2.47       3.30       0.00       3.30        0.03     7.97   0.494
  sub3                       6.67       0.00       0.00       2.47       3.26       0.00       3.26        0.07    16.48   0.489
  sub4                       6.67       0.00       0.00       0.73       4.54       0.00       4.54        0.09    18.57   0.681
  sub5                       6.67       0.00       0.00       0.47       4.89       0.00       4.89        0.06    15.99   0.733
  sub7                       6.67       0.00       0.00       0.60       4.82       0.00       4.82        0.02     5.61   0.722
  sub8                       6.67       0.00       0.00       0.60       4.81       0.00       4.81        0.03     9.92   0.721
  sub9                       6.67       0.00       0.00       0.60       4.80       0.00       4.80        0.02     7.36   0.720
  sub10                      6.67       0.00       0.00       0.53       4.85       0.00       4.85        0.05    15.94   0.726
  sub11                      6.67       0.00       0.00       0.53       4.86       0.00       4.86        0.06    18.64   0.729
  sub12                      6.67       0.00       0.00       0.87       4.62       0.00       4.62        0.04    15.69   0.692
  sub14                      6.67       0.00       0.00       0.60       4.80       0.00       4.80        0.05    14.38   0.720
  sub15                      6.67       0.00       0.00       2.00       3.69       0.00       3.69        0.06    19.52   0.553
  sub16                      6.67       0.00       0.00       2.20       3.55       0.00       3.55        0.04    13.83   0.532
  sub17                      6.67       0.00       0.00       2.13       3.60       0.00       3.60        0.03    11.18   0.540
  sub22                      6.67       0.00       0.00       2.87       3.01       0.00       3.01        0.19    63.78   0.452
  sub23                      6.67       0.00       0.00       2.47       3.33       0.00       3.33        0.16    54.27   0.500
  sub60                      6.67       0.00       0.00       0.80       3.35       0.00       3.35        1.02    97.43   0.502
  sub61                      6.67       0.00       0.00       1.13       3.55       0.00       3.55        1.09   121.21   0.532
  sub62                      6.67       0.00       0.00       0.53       3.82       0.00       3.82        1.17   124.17   0.572
  sub63                      6.67       0.00       0.00       1.93       3.15       0.00       3.15        0.95   112.77   0.472
  sub64                      6.67       0.00       0.00       1.00       3.20       0.00       3.20        0.97    92.59   0.480
  sub65                      6.67       0.00       0.00       0.87       3.25       0.00       3.25        1.00    93.99   0.486
  sub66                      6.67       0.00       0.00       1.93       2.79       0.00       2.79        0.85    84.64   0.418
  sub67                      6.67       0.00       0.00       0.53       4.17       0.00       4.17        1.29   158.23   0.624
  sub68                      6.67       0.00       0.00       0.93       3.77       0.00       3.77        1.16   133.74   0.565
  sub69                      6.67       0.00       0.00       1.00       4.04       0.00       4.04        0.94   131.76   0.605
  sub70                      6.67       4.12       0.00       3.67       5.04       0.00       5.04        1.15   109.50   0.467
  sub71                      6.67       0.00       0.00       0.53       3.66       0.00       3.66        0.86    86.93   0.549
  sub72                      6.67       0.00       0.00       0.47       2.64       0.00       2.64        0.54    41.54   0.395
  sub73                      6.67       4.91       0.00       3.94       5.20       0.00       5.20        1.22    94.59   0.449
  sub74                      6.67       0.00       0.00       5.00       1.21       0.00       1.21        0.49    73.30   0.182
  
  
  ******************
  Node Depth Summary
  ******************
  
  ---------------------------------------------------------------------------------
                                 Average  Maximum  Maximum  Time of Max    Reported
                                   Depth    Depth      HGL   Occurrence   Max Depth
  Node                 Type       Meters   Meters   Meters  days hr:min      Meters
  ---------------------------------------------------------------------------------
  WS02001211           JUNCTION     0.76     0.79     5.63     0  02:41        0.79
  WS02001212           JUNCTION     0.47     0.51     5.57     0  02:41        0.51
  WS02001213           JUNCTION     0.69     0.76     5.52     0  02:40        0.76
  WS02003069           JUNCTION     0.48     0.58     5.17     0  02:39        0.58
  WS02003072           JUNCTION     0.55     0.64     5.01     0  02:40        0.64
  WS02003073           JUNCTION     0.33     0.39     4.46     0  02:40        0.39
  WS02003060           JUNCTION     0.43     0.51     5.45     0  02:39        0.51
  WS02003066           JUNCTION     0.23     0.30     5.85     0  02:36        0.30
  WS02003059           JUNCTION     0.74     0.81     5.50     0  02:39        0.81
  WS02003067           JUNCTION     0.57     0.70     6.02     0  02:36        0.70
  WS02004401           JUNCTION     0.67     0.85     6.85     0  02:32        0.85
  WS02004402           JUNCTION     0.70     0.88     6.84     0  02:32        0.88
  WS02004403           JUNCTION     0.72     0.89     6.82     0  02:33        0.89
  WS02004404           JUNCTION     0.80     0.96     6.81     0  02:33        0.96
  WS02004406           JUNCTION     0.80     0.96     6.79     0  02:33        0.96
  WS02004409           JUNCTION     0.49     0.67     6.44     0  02:35        0.67
  WS02004410           JUNCTION     0.51     0.68     6.40     0  02:35        0.68
  WS02004411           JUNCTION     0.52     0.69     6.37     0  02:35        0.69
  WS02004412           JUNCTION     0.54     0.70     6.34     0  02:36        0.70
  WS02004413           JUNCTION     0.70     0.86     6.33     0  02:36        0.86
  WS02004405           JUNCTION     0.79     0.96     6.81     0  02:33        0.96
  WS02006109           JUNCTION     0.75     0.97     7.59     0  02:29        0.97
  WS02006110           JUNCTION     0.74     0.92     7.51     0  02:29        0.92
  WS02006111           JUNCTION     0.22     0.29     6.99     0  02:32        0.29
  WS02006112           JUNCTION     0.84     1.06     6.94     0  02:33        1.05
  WS02006113           JUNCTION     0.34     0.45     7.35     0  02:30        0.45
  WS02006115           JUNCTION     0.56     0.75     6.89     0  02:32        0.75
  WS02006116           JUNCTION     0.64     0.83     6.87     0  02:33        0.83
  WS02006230           JUNCTION     0.72     1.01     7.75     0  02:31        1.01
  WS02006231           JUNCTION     0.48     0.67     7.80     0  02:31        0.67
  WS02006232           JUNCTION     0.61     0.80     7.84     0  02:32        0.80
  WS02006234           JUNCTION     0.53     0.73     7.89     0  02:33        0.73
  WS02006235           JUNCTION     0.56     0.76     7.92     0  02:33        0.76
  WS02006238           JUNCTION     0.59     0.78     7.93     0  02:33        0.78
  WS02006240           JUNCTION     0.47     0.68     7.98     0  02:34        0.68
  WS02006242           JUNCTION     0.52     0.73     8.00     0  02:34        0.73
  WS02006243           JUNCTION     0.40     0.61     8.03     0  02:34        0.61
  WS02006245           JUNCTION     0.38     0.57     8.05     0  02:35        0.57
  WS02006247           JUNCTION     0.39     0.57     8.07     0  02:35        0.57
  WS02006248           JUNCTION     0.34     0.50     8.09     0  02:35        0.50
  WS02006249           JUNCTION     0.37     0.51     8.11     0  02:35        0.51
  WS02006239           JUNCTION     0.54     0.74     7.95     0  02:33        0.74
  WS02006251           JUNCTION     0.36     0.48     8.15     0  02:35        0.48
  WS02006252           JUNCTION     0.31     0.35     8.59     0  02:18        0.35
  WS02006253           JUNCTION     0.38     0.51     8.15     0  02:35        0.51
  WS02006256           JUNCTION     1.08     1.21     8.14     0  02:33        1.21
  WS02004138           JUNCTION     0.19     0.19     7.44     0  02:00        0.19
  WS02004407           JUNCTION     0.22     0.30     6.61     0  02:33        0.30
  WS02006228           JUNCTION     0.75     1.01     7.66     0  02:29        1.01
  WS02006229           JUNCTION     0.72     1.00     7.70     0  02:29        1.00
  WS02006280           JUNCTION     0.06     0.16     8.43     0  02:17        0.16
  WS02006284           JUNCTION     0.35     0.50     8.90     0  02:17        0.50
  WS02006287           JUNCTION     0.09     0.23     9.19     0  02:16        0.23
  WSF200               JUNCTION     0.21     0.30     5.54     0  02:36        0.30
  HS02004901           JUNCTION     0.12     0.25    10.07     0  02:14        0.25
  HS02004881           JUNCTION     0.01     0.03     9.06     0  02:16        0.03
  HS02004876           JUNCTION     0.04     0.11     9.14     0  02:13        0.11
  HS02004870           JUNCTION     0.01     0.05     9.33     0  02:17        0.05
  HS02004862           JUNCTION     0.02     0.05     9.44     0  02:18        0.05
  HS02004856           JUNCTION     0.08     0.11     9.53     0  02:17        0.11
  HS02004852           JUNCTION     0.01     0.03     9.54     0  02:18        0.03
  HS02004848           JUNCTION     0.01     0.03     9.63     0  02:17        0.03
  HS02004842           JUNCTION     0.33     0.36     9.63     0  02:17        0.36
  HS02004837           JUNCTION     0.03     0.05     9.63     0  02:17        0.05
  HS02004830           JUNCTION     0.04     0.07     9.53     0  02:17        0.07
  HS02004824           JUNCTION     0.02     0.04     9.45     0  02:20        0.04
  HS02004817           JUNCTION     0.43     0.54     9.39     0  02:17        0.54
  HS02004807           JUNCTION     0.12     0.22     9.39     0  02:17        0.22
  HS02004802           JUNCTION     0.15     0.25     9.38     0  02:17        0.25
  HS02004799           JUNCTION     0.11     0.28     9.49     0  02:15        0.28
  HS02004792           JUNCTION     0.03     0.11     9.63     0  02:14        0.11
  HS02004788           JUNCTION     0.02     0.08     9.98     0  02:15        0.08
  HS02004785           JUNCTION     0.04     0.15    10.05     0  02:15        0.15
  HS02004777           JUNCTION     0.14     0.27    10.07     0  02:14        0.27
  HS02004770           JUNCTION     0.11     0.24    10.07     0  02:14        0.24
  HS02004480           JUNCTION     0.07     0.22     9.46     0  02:15        0.22
  HS02004479           JUNCTION     0.11     0.26     9.46     0  02:15        0.26
  HS02004478           JUNCTION     0.05     0.14     9.37     0  02:16        0.14
  YS02001745           JUNCTION     0.34     0.66     8.17     0  06:07        0.66
  YS02001748           JUNCTION     0.71     1.10     8.17     0  06:07        1.10
  YS02001751           JUNCTION     0.89     1.39     8.27     0  04:00        1.29
  YS02001754           JUNCTION     1.14     1.57     8.17     0  06:07        1.56
  YS02001762           JUNCTION     1.33     1.77     8.17     0  06:11        1.77
  YS02001765           JUNCTION     1.29     1.72     8.17     0  06:11        1.72
  YS02001767           JUNCTION     1.25     1.71     8.20     0  03:47        1.68
  YS02001770           JUNCTION     1.25     1.83     8.32     0  03:44        1.68
  YS02001774           JUNCTION     1.31     1.94     8.36     0  03:44        1.75
  YS02001779           JUNCTION     1.07     1.68     8.37     0  03:44        1.49
  YS02001882           JUNCTION     0.32     0.52     7.23     0  02:54        0.52
  YS02001884           JUNCTION     0.41     0.62     7.23     0  02:53        0.62
  YS02001759           JUNCTION     1.37     1.81     8.17     0  06:11        1.81
  YS02001887           JUNCTION     0.49     0.70     7.23     0  02:53        0.70
  YS02001890           JUNCTION     0.52     0.73     7.23     0  02:53        0.73
  YS02001898           JUNCTION     0.29     0.48     7.22     0  02:54        0.48
  YS02001901           JUNCTION     0.41     0.61     7.22     0  02:55        0.61
  YS02001904           JUNCTION     0.39     0.58     7.21     0  02:55        0.58
  YS02001907           JUNCTION     0.72     0.92     7.21     0  02:54        0.92
  YS02001910           JUNCTION     0.51     0.71     7.21     0  02:54        0.71
  YS02001915           JUNCTION     0.31     0.49     7.21     0  02:54        0.49
  YS02001918           JUNCTION     0.09     0.15     7.21     0  02:54        0.15
  YS02001619           JUNCTION     0.85     1.27     8.20     0  06:11        1.27
  YS02001629           JUNCTION     1.20     1.65     8.19     0  06:12        1.64
  YS02001641           JUNCTION     1.30     1.75     8.18     0  06:11        1.75
  YS02001644           JUNCTION     1.31     1.75     8.18     0  06:11        1.75
  YS02001652           JUNCTION     1.15     1.87     8.47     0  03:43        1.58
  YS02001655           JUNCTION     0.92     2.03     8.88     0  03:43        1.32
  YS02001920           JUNCTION     0.19     0.23     7.24     0  03:01        0.23
  YS02001923           JUNCTION     0.07     0.09     7.35     0  03:01        0.09
  YS02001926           JUNCTION     0.15     0.19     7.64     0  03:01        0.19
  YS02001929           JUNCTION     0.07     0.10     7.79     0  03:01        0.10
  YS02001658           JUNCTION     0.65     1.04     8.18     0  06:07        1.03
  YS02001661           JUNCTION     0.44     0.77     8.18     0  06:07        0.77
  YS02001664           JUNCTION     0.12     0.26     8.18     0  06:07        0.26
  YS02001622           JUNCTION     0.87     1.29     8.20     0  06:11        1.29
  YS02001633           JUNCTION     1.29     1.74     8.19     0  06:11        1.74
  YS02001649           JUNCTION     1.34     1.79     8.18     0  06:11        1.79
  YS02001757           JUNCTION     1.46     1.91     8.17     0  06:11        1.91
  YS02001895           JUNCTION     0.29     0.48     7.22     0  02:54        0.48
  YS02001625           JUNCTION     1.15     1.59     8.20     0  06:11        1.59
  YS02163301           JUNCTION     1.23     1.68     8.19     0  06:12        1.67
  YS02163601           JUNCTION     1.34     1.79     8.19     0  06:11        1.79
  YS02164001           JUNCTION     1.28     1.73     8.19     0  06:11        1.73
  YS02001647           JUNCTION     1.14     1.57     8.18     0  06:11        1.57
  YSB1154              JUNCTION     0.25     0.41     9.46     0  02:15        0.41
  YSB6556              JUNCTION     0.14     0.29     9.46     0  02:15        0.29
  YSB1174              JUNCTION     0.20     0.35     9.46     0  02:15        0.35
  YSB1171              JUNCTION     0.40     0.56     9.46     0  02:15        0.56
  YS02006553           JUNCTION     0.72     0.93     7.21     0  02:57        0.93
  YS02006561           JUNCTION     0.16     0.26     6.92     0  02:57        0.26
  YS02006556           JUNCTION     0.69     0.90     7.21     0  02:56        0.90
  YS02006558           JUNCTION     0.74     0.94     7.21     0  02:58        0.94
  YS02001783           JUNCTION     0.28     0.46     6.61     0  02:57        0.46
  YS02001784           JUNCTION     0.31     0.49     6.55     0  02:57        0.49
  YS02001786           JUNCTION     0.26     0.41     6.44     0  02:58        0.41
  YS02001788           JUNCTION     0.19     0.31     6.29     0  02:58        0.31
  YS02001790           JUNCTION     0.23     0.38     6.03     0  02:58        0.38
  YS02001791           JUNCTION     0.15     0.24     5.71     0  02:58        0.24
  YS02001793           JUNCTION     0.10     0.16     4.99     0  02:58        0.16
  WS02004139           JUNCTION     0.70     0.74     5.65     0  02:42        0.74
  WSC                  OUTFALL      0.33     0.39     1.06     0  02:40        0.39
  3                    OUTFALL      0.12     0.20     6.20     0  02:33        0.20
  4                    OUTFALL      0.00     0.01     7.01     0  02:35        0.01
  5                    OUTFALL      0.00     0.00     5.00     0  00:00        0.00
  JK-storage           STORAGE      0.04     3.00     3.80     0  00:00        2.70
  CC-storage           STORAGE      0.70     1.17     8.17     0  06:08        1.17
  XR-storage           STORAGE      1.81     5.59     3.59     0  01:50        5.59
  
  
  *******************
  Node Inflow Summary
  *******************
  
  -------------------------------------------------------------------------------------------------
                                  Maximum  Maximum                  Lateral       Total        Flow
                                  Lateral    Total  Time of Max      Inflow      Inflow     Balance
                                   Inflow   Inflow   Occurrence      Volume      Volume       Error
  Node                 Type           LPS      LPS  days hr:min    10^6 ltr    10^6 ltr     Percent
  -------------------------------------------------------------------------------------------------
  WS02001211           JUNCTION      7.35   387.98     0  03:16       0.207        9.29       0.463
  WS02001212           JUNCTION      0.00   388.33     0  03:16           0        9.24       0.264
  WS02001213           JUNCTION      0.00   388.67     0  03:17           0        9.22       0.281
  WS02003069           JUNCTION      0.32   939.35     0  02:39     0.00902        16.3       0.214
  WS02003072           JUNCTION      0.00   939.31     0  02:39           0        16.3       0.254
  WS02003073           JUNCTION      1.82   941.13     0  02:40      0.0514        16.3       0.292
  WS02003060           JUNCTION     16.53   939.06     0  02:38       0.466        16.3       0.201
  WS02003066           JUNCTION      0.00   538.05     0  02:36           0        6.73       0.067
  WS02003059           JUNCTION      0.00   389.23     0  03:17           0         9.2       0.468
  WS02003067           JUNCTION      0.00   538.02     0  02:36           0        6.74       0.142
  WS02004401           JUNCTION      0.00   540.48     0  02:32           0        6.98       0.315
  WS02004402           JUNCTION      0.00   540.14     0  02:32           0        6.96       0.296
  WS02004403           JUNCTION      0.00   540.00     0  02:32           0        6.94       0.269
  WS02004404           JUNCTION      0.16   539.99     0  02:33     0.00457        6.92       0.202
  WS02004406           JUNCTION      0.00   540.01     0  02:33           0        6.89       0.493
  WS02004409           JUNCTION      0.00   539.71     0  02:33           0        6.85       0.247
  WS02004410           JUNCTION      0.00   538.84     0  02:35           0        6.83       0.277
  WS02004411           JUNCTION      0.00   538.47     0  02:35           0        6.81       0.284
  WS02004412           JUNCTION      0.00   538.21     0  02:35           0        6.79       0.306
  WS02004413           JUNCTION      0.00   538.11     0  02:36           0        6.77       0.452
  WS02004405           JUNCTION      0.04   539.91     0  02:33     0.00107        6.91       0.302
  WS02006109           JUNCTION      1.23   535.00     0  02:29      0.0347        7.07       0.307
  WS02006110           JUNCTION      0.00   535.00     0  02:30           0        7.05       0.286
  WS02006111           JUNCTION      0.00   556.53     0  02:29           0        7.02       0.064
  WS02006112           JUNCTION     11.18   546.31     0  02:32      0.0309        7.05       0.422
  WS02006113           JUNCTION      0.00   535.27     0  02:29           0        7.03       0.144
  WS02006115           JUNCTION      0.00   544.41     0  02:32           0        7.02       0.296
  WS02006116           JUNCTION      0.00   541.12     0  02:32           0           7       0.280
  WS02006230           JUNCTION     10.28   349.84     0  02:53        0.29        6.05       0.248
  WS02006231           JUNCTION      0.00   338.99     0  02:54           0        5.77       0.163
  WS02006232           JUNCTION      0.00   338.88     0  02:54           0        5.79       0.285
  WS02006234           JUNCTION      0.00   338.16     0  02:54           0         5.8       0.141
  WS02006235           JUNCTION      0.00   338.12     0  02:53           0        5.85       0.191
  WS02006238           JUNCTION      0.00   239.31     0  02:43           0        3.55       0.225
  WS02006240           JUNCTION      0.00   238.01     0  02:42           0        3.54       0.344
  WS02006242           JUNCTION      0.00   237.24     0  02:41           0        3.54       0.415
  WS02006243           JUNCTION      0.00   236.24     0  02:38           0        3.54       0.158
  WS02006245           JUNCTION      0.00   239.79     0  02:23           0        3.54       0.243
  WS02006247           JUNCTION      0.00   242.50     0  02:23           0        3.55       0.201
  WS02006248           JUNCTION      0.00   244.06     0  02:23           0        3.55       0.118
  WS02006249           JUNCTION      0.00   245.60     0  02:21           0        3.56       0.302
  WS02006239           JUNCTION      0.00   238.68     0  02:43           0        3.54       0.338
  WS02006251           JUNCTION      0.08   247.89     0  02:19     0.00217        3.58       0.240
  WS02006252           JUNCTION      0.00   200.00     0  02:18           0         3.4       0.014
  WS02006253           JUNCTION      1.69    50.37     0  02:16       0.004       0.179       2.090
  WS02006256           JUNCTION      0.00   600.00     0  02:23           0        6.93       0.047
  WS02004138           JUNCTION      0.00   380.00     0  02:00           0        9.12       0.058
  WS02004407           JUNCTION      0.00   539.82     0  02:33           0        6.85       0.111
  WS02006228           JUNCTION      0.00   533.78     0  02:29           0        7.05       0.218
  WS02006229           JUNCTION      0.00   533.79     0  02:29           0        7.07       0.185
  WS02006280           JUNCTION      0.00   254.25     0  02:17           0        1.03       0.007
  WS02006284           JUNCTION      0.10   254.24     0  02:16      0.0027        1.03       0.105
  WS02006287           JUNCTION      0.00   254.11     0  02:16           0        1.03       0.071
  WSF200               JUNCTION      0.00   538.07     0  02:36           0        6.73       0.064
  HS02004901           JUNCTION     13.83    13.83     0  02:09      0.0371      0.0373       4.945
  HS02004881           JUNCTION      5.61    49.06     0  02:16      0.0162       0.172       0.210
  HS02004876           JUNCTION      8.99    43.76     0  02:16      0.0311       0.156       0.342
  HS02004870           JUNCTION      9.92    34.94     0  02:16      0.0307       0.125       0.085
  HS02004862           JUNCTION      8.17    25.65     0  02:17      0.0363      0.0944       0.180
  HS02004856           JUNCTION      7.36    17.53     0  02:16      0.0231      0.0595       2.483
  HS02004852           JUNCTION      0.00    10.62     0  02:17           0      0.0365       0.142
  HS02004848           JUNCTION     16.48    16.48     0  02:20      0.0734      0.0734       0.060
  HS02004842           JUNCTION      0.00     6.44     0  02:29           0      0.0499      35.224
  HS02004837           JUNCTION     22.29    27.65     0  02:16       0.232       0.269       0.302
  HS02004830           JUNCTION      0.15    27.78     0  02:17     0.00423        0.26       0.477
  HS02004824           JUNCTION     18.62    46.16     0  02:20      0.0961       0.355       0.152
  HS02004817           JUNCTION      0.60    46.76     0  02:20      0.0169       0.371       4.704
  HS02004807           JUNCTION     18.64    63.78     0  02:18      0.0565       0.411       1.040
  HS02004802           JUNCTION      0.00    64.20     0  02:19           0       0.407       1.009
  HS02004799           JUNCTION     14.38   162.39     0  02:14      0.0457       0.544       0.420
  HS02004792           JUNCTION     64.06   148.26     0  02:14       0.198       0.499       0.082
  HS02004788           JUNCTION     21.19    86.25     0  02:15       0.111       0.302       0.130
  HS02004785           JUNCTION      0.15    65.39     0  02:14     0.00423       0.193       0.251
  HS02004777           JUNCTION      0.03    65.71     0  02:13    0.000846       0.194       2.749
  HS02004770           JUNCTION     54.27    66.84     0  02:11       0.159       0.194       1.618
  HS02004480           JUNCTION      0.00   191.60     0  02:15           0       0.637       0.117
  HS02004479           JUNCTION      0.00    29.76     0  02:16           0       0.105       0.699
  HS02004478           JUNCTION      0.00   254.08     0  02:16           0        1.03       0.060
  YS02001745           JUNCTION     97.44   149.35     0  04:13        1.01        1.08       0.701
  YS02001748           JUNCTION      0.04   209.02     0  03:42     0.00127         1.1       1.918
  YS02001751           JUNCTION      0.01   247.77     0  03:43     0.00031        1.01       2.266
  YS02001754           JUNCTION      0.26   178.30     0  03:08     0.00733       0.973       2.411
  YS02001762           JUNCTION      0.00   144.28     0  02:55           0        1.11       1.944
  YS02001765           JUNCTION      0.00   142.93     0  02:55           0        1.11       2.226
  YS02001767           JUNCTION      0.54   151.54     0  02:47      0.0151        1.13       3.220
  YS02001770           JUNCTION    124.32   162.22     0  02:46        1.18         1.2       2.638
  YS02001774           JUNCTION      0.00    49.59     0  02:13           0      0.0952      36.212
  YS02001779           JUNCTION      0.01    42.25     0  03:44    0.000141      0.0421      55.915
  YS02001882           JUNCTION      0.00     4.74     0  02:05           0     0.00621      39.928
  YS02001884           JUNCTION      0.00    13.70     0  02:05           0      0.0247      25.902
  YS02001759           JUNCTION    121.25   266.05     0  02:53         1.1        2.17       1.069
  YS02001887           JUNCTION    158.68   158.76     0  02:41         1.3        1.31       0.566
  YS02001890           JUNCTION      0.00   158.21     0  02:41           0        1.28       0.633
  YS02001898           JUNCTION      0.00   156.95     0  02:43           0        1.27       0.187
  YS02001901           JUNCTION      0.00   156.86     0  02:43           0        1.27       0.453
  YS02001904           JUNCTION      0.00   156.62     0  02:57           0        1.27       0.421
  YS02001907           JUNCTION      0.00   292.33     0  02:57           0        2.73       0.826
  YS02001910           JUNCTION      0.00   133.20     0  02:58           0        1.47       0.712
  YS02001915           JUNCTION     86.94   131.75     0  02:58       0.865        1.48       0.326
  YS02001918           JUNCTION      0.00    44.70     0  03:02           0       0.615       0.205
  YS02001619           JUNCTION     84.64   117.34     0  03:51       0.854        0.86       1.398
  YS02001629           JUNCTION      0.00   214.18     0  03:51           0       0.804       3.763
  YS02001641           JUNCTION      0.00   188.03     0  02:55           0        1.68       1.269
  YS02001644           JUNCTION     92.63   280.37     0  02:55       0.974        2.62       1.008
  YS02001652           JUNCTION      0.00   201.31     0  02:51           0       0.902       2.533
  YS02001655           JUNCTION      0.15   290.28     0  03:43     0.00434       0.946       2.667
  YS02001920           JUNCTION      2.87    44.40     0  03:01      0.0809       0.617       0.357
  YS02001923           JUNCTION      0.04    41.53     0  03:01     0.00106       0.537       0.063
  YS02001926           JUNCTION      0.05    41.57     0  03:01     0.00147       0.538       0.445
  YS02001929           JUNCTION     41.54    41.54     0  03:01       0.537       0.537       0.062
  YS02001658           JUNCTION      0.00   285.34     0  03:57           0        1.05       2.086
  YS02001661           JUNCTION      0.00   232.15     0  03:58           0        1.06       1.360
  YS02001664           JUNCTION    112.77   112.77     0  02:44       0.954       0.971       0.105
  YS02001622           JUNCTION      0.00   159.28     0  03:52           0       0.877       3.789
  YS02001633           JUNCTION     94.19   190.75     0  03:03           1        1.73       1.855
  YS02001649           JUNCTION      0.00   419.12     0  02:54           0        3.43       1.094
  YS02001757           JUNCTION      0.00   717.34     0  02:58           0        6.45       1.452
  YS02001895           JUNCTION      0.00   157.49     0  02:43           0        1.28       0.309
  YS02001625           JUNCTION      0.00   213.85     0  03:51           0       0.868       4.674
  YS02163301           JUNCTION      0.00   122.84     0  02:36           0       0.758       3.247
  YS02163601           JUNCTION      0.11   189.26     0  03:03      0.0031         1.7       1.799
  YS02164001           JUNCTION      0.00   188.29     0  03:03           0        1.68       1.201
  YS02001647           JUNCTION      0.00   281.09     0  02:56           0        2.58       1.060
  YSB1154              JUNCTION     15.99    15.99     0  02:14      0.0554      0.0567       2.612
  YSB6556              JUNCTION      0.00    15.99     0  02:16           0      0.0577       2.210
  YSB1174              JUNCTION     15.69    15.69     0  02:09      0.0403      0.0413       3.205
  YSB1171              JUNCTION      0.00    29.75     0  02:15           0       0.105       6.436
  YS02006553           JUNCTION      0.00   294.45     0  02:57           0        2.72       0.535
  YS02006561           JUNCTION      0.00   444.14     0  02:58           0        3.85       0.013
  YS02006556           JUNCTION      0.00   293.42     0  02:57           0        2.73       0.387
  YS02006558           JUNCTION    134.62   425.79     0  02:56        1.18        3.88       0.125
  YS02001783           JUNCTION      0.00   423.18     0  02:57           0        3.85       0.044
  YS02001784           JUNCTION      1.06   423.64     0  02:57      0.0299        3.88       0.070
  YS02001786           JUNCTION      0.06   423.31     0  02:57     0.00159        3.88       0.068
  YS02001788           JUNCTION      0.07   423.27     0  02:58       0.002        3.88       0.040
  YS02001790           JUNCTION      0.15   423.41     0  02:58     0.00437        3.88       0.050
  YS02001791           JUNCTION      0.00   423.23     0  02:58           0        3.88       0.025
  YS02001793           JUNCTION      0.00   423.26     0  02:58           0        3.88       0.011
  WS02004139           JUNCTION      0.32   380.32     0  02:00     0.00905        9.12       0.476
  WSC                  OUTFALL       0.00   941.16     0  02:40           0        16.2       0.000
  3                    OUTFALL       0.00   507.48     0  02:33           0         4.6       0.000
  4                    OUTFALL       0.00     1.77     0  02:35           0    0.000703       0.000
  5                    OUTFALL       0.00     0.00     0  00:00           0           0       0.000 ltr
  JK-storage           STORAGE       0.00   423.26     0  02:58           0        4.03     -41.848
  CC-storage           STORAGE       0.00   717.79     0  02:58           0        6.35       0.894
  XR-storage           STORAGE     357.32   357.32     0  02:56        7.35        7.95     -12.866
  
  
  **********************
  Node Surcharge Summary
  **********************
  
  Surcharging occurs when water rises above the top of the highest conduit.
  ---------------------------------------------------------------------
                                               Max. Height   Min. Depth
                                   Hours       Above Crown    Below Rim
  Node                 Type      Surcharged         Meters       Meters
  ---------------------------------------------------------------------
  WS02006109           JUNCTION        1.10          0.149        1.671
  WS02006110           JUNCTION        0.22          0.011        1.839
  WS02006112           JUNCTION        0.46          0.056        1.624
  WS02006232           JUNCTION        0.83          0.097        1.383
  WS02006234           JUNCTION        0.17          0.010        1.230
  WS02006235           JUNCTION        0.43          0.049        1.241
  WS02006238           JUNCTION        0.53          0.064        1.366
  WS02006242           JUNCTION        0.10          0.004        0.816
  WS02006239           JUNCTION        0.11          0.005        1.285
  WS02006228           JUNCTION        1.07          0.177        2.023
  YS02001748           JUNCTION        0.51          0.018        1.172
  YS02001751           JUNCTION        3.38          0.387        0.813
  YS02001754           JUNCTION        4.32          0.516        0.634
  YS02001762           JUNCTION        5.32          0.774        0.376
  YS02001765           JUNCTION        5.28          0.724        0.376
  YS02001767           JUNCTION        5.23          0.715        0.315
  YS02001770           JUNCTION        5.15          0.798        0.122
  YS02001774           JUNCTION        5.31          0.936        0.114
  YS02001779           JUNCTION        4.18          0.680        0.000
  YS02001759           JUNCTION        5.35          0.810        0.400
  YS02001619           JUNCTION        2.98          0.267        0.343
  YS02001629           JUNCTION        3.01          0.266        0.204
  YS02001641           JUNCTION        5.30          0.748        0.352
  YS02001644           JUNCTION        5.30          0.750        0.170
  YS02001652           JUNCTION        4.55          0.840        0.290
  YS02001655           JUNCTION        3.59          1.026        0.174
  YS02001658           JUNCTION        0.81          0.035        1.265
  YS02001622           JUNCTION        3.23          0.292        0.328
  YS02001633           JUNCTION        5.26          0.717        0.343
  YS02001649           JUNCTION        5.33          0.786        0.264
  YS02001757           JUNCTION        5.43          0.913        0.297
  YS02001625           JUNCTION        4.94          0.591        0.189
  YS02163301           JUNCTION        5.20          0.676        0.354
  YS02163601           JUNCTION        5.34          0.791        0.289
  YS02164001           JUNCTION        5.27          0.729        0.371
  YS02001647           JUNCTION        4.75          0.569        0.331
  
  
  *********************
  Node Flooding Summary
  *********************
  
  Flooding refers to all water that overflows a node, whether it ponds or not.
  --------------------------------------------------------------------------
                                                             Total   Maximum
                                 Maximum   Time of Max       Flood    Ponded
                        Hours       Rate    Occurrence      Volume     Depth
  Node                 Flooded       LPS   days hr:min    10^6 ltr    Meters
  --------------------------------------------------------------------------
  YS02001779              0.01     21.97      0  03:44       0.000     0.000
  
  
  **********************
  Storage Volume Summary
  **********************
  
  --------------------------------------------------------------------------------------------------
                         Average     Avg  Evap Exfil       Maximum     Max    Time of Max    Maximum
                          Volume    Pcnt  Pcnt  Pcnt        Volume    Pcnt     Occurrence    Outflow
  Storage Unit           1000 m3    Full  Loss  Loss       1000 m3    Full    days hr:min        LPS
  --------------------------------------------------------------------------------------------------
  JK-storage               0.002       1     0     0         0.151      52       0  00:00     600.00
  CC-storage               1.958      12     0     0         3.256      21       0  06:08     200.00
  XR-storage               0.217      23     0     0         0.671      72       0  01:50     380.00
  
  
  ***********************
  Outfall Loading Summary
  ***********************
  
  -----------------------------------------------------------
                         Flow       Avg       Max       Total
                         Freq      Flow      Flow      Volume
  Outfall Node           Pcnt       LPS       LPS    10^6 ltr
  -----------------------------------------------------------
  WSC                   99.99    700.57    941.16      16.244
  3                     92.52    266.28    507.48       4.596
  4                      4.41      0.92      1.77       0.001
  5                      0.00      0.00      0.00       0.000
  -----------------------------------------------------------
  System                49.23    967.77   1447.04      20.840
  
  
  ********************
  Link Flow Summary
  ********************
  
  -----------------------------------------------------------------------------
                                 Maximum  Time of Max   Maximum    Max/    Max/
                                  |Flow|   Occurrence   |Veloc|    Full    Full
  Link                 Type          LPS  days hr:min     m/sec    Flow   Depth
  -----------------------------------------------------------------------------
  WS02003066WSF200     CONDUIT    538.07     0  02:36      2.77    0.09    0.23
  WS02006287WS02006284 CONDUIT    254.15     0  02:16      1.74    0.12    0.24
  WS02006284WS02006280 CONDUIT    254.25     0  02:17      1.98    0.11    0.22
  WS02006280WS02006229 CONDUIT    254.26     0  02:17      3.19    0.05    0.16
  WS02006229WS02006228 CONDUIT    533.78     0  02:29      1.06    1.77    1.00
  WS02006256WS02006235 CONDUIT    166.25     0  00:01      2.58    1.76    1.00
  WS02006253WS02006251 CONDUIT     50.26     0  02:15      0.53    0.15    0.70
  WS02006252WS02006251 CONDUIT    200.64     0  02:18      1.97    0.74    0.76
  WS02006251WS02006249 CONDUIT    245.60     0  02:21      0.99    0.71    0.71
  WS02006249WS02006248 CONDUIT    244.06     0  02:23      1.08    1.34    0.71
  WS02006248WS02006247 CONDUIT    242.50     0  02:23      1.04    0.53    0.76
  WS02006247WS02006245 CONDUIT    239.79     0  02:23      0.99    1.90    0.80
  WS02006245WS02006243 CONDUIT    236.24     0  02:38      1.02    0.70    0.83
  WS02006243WS02006242 CONDUIT    237.24     0  02:41      0.82    0.51    0.93
  WS02006242WS02006240 CONDUIT    238.01     0  02:42      0.69    0.95    0.98
  WS02006240WS02006239 CONDUIT    238.68     0  02:43      0.68    0.75    0.99
  WS02006239WS02006238 CONDUIT    239.31     0  02:43      0.67    0.77    1.00
  WS02006238WS02006235 CONDUIT    239.31     0  02:43      1.25    0.53    1.00
  WS02006235WS02006234 CONDUIT    338.16     0  02:54      0.95    3.57    1.00
  WS02006234WS02006232 CONDUIT    338.88     0  02:54      1.13    0.69    1.00
  WS02006232WS02006231 CONDUIT    338.99     0  02:54      0.95    0.71    0.97
  WS02006231WS02006230 CONDUIT    339.56     0  02:53      1.30    5.15    0.93
  WS02006230WS02006229 CONDUIT    350.89     0  02:53      0.91    7.81    1.00
  WS02006228WS02006109 CONDUIT    533.77     0  02:29      1.06    2.33    1.00
  WS02006116WS02004401 CONDUIT    540.48     0  02:32      0.77    0.74    0.84
  WS02006115WS02006116 CONDUIT    541.12     0  02:32      0.86    0.69    0.76
  WS02006113WS02006111 CONDUIT    556.53     0  02:29      2.46    0.67    0.46
  WS02006112WS02006115 CONDUIT    544.41     0  02:32      0.75    0.32    0.87
  WS02006111WS02006112 CONDUIT    540.03     0  02:32      1.50    0.26    0.67
  WS02006110WS02006113 CONDUIT    535.27     0  02:29      1.27    0.49    0.78
  WS02006109WS02006110 CONDUIT    535.00     0  02:30      1.06    1.03    1.00
  WS02004411WS02004412 CONDUIT    538.21     0  02:35      0.92    0.76    0.69
  WS02004401WS02004402 CONDUIT    540.14     0  02:32      0.77    0.65    0.87
  WS02004413WS02003067 CONDUIT    538.02     0  02:36      1.11    0.23    0.59
  WS02004412WS02004413 CONDUIT    538.11     0  02:36      0.82    0.36    0.78
  WS02004410WS02004411 CONDUIT    538.47     0  02:35      0.94    0.74    0.69
  WS02004409WS02004410 CONDUIT    538.84     0  02:35      0.96    0.70    0.68
  WS02004407WS02004409 CONDUIT    539.71     0  02:33      1.47    0.19    0.48
  WS02004406WS02004407 CONDUIT    539.82     0  02:33      1.04    0.24    0.63
  WS02004405WS02004406 CONDUIT    540.01     0  02:33      0.70    1.07    0.96
  WS02004404WS02004405 CONDUIT    539.88     0  02:33      0.84    5.29    0.96
  WS02004403WS02004404 CONDUIT    539.82     0  02:33      0.74    0.39    0.93
  WS02004402WS02004403 CONDUIT    540.00     0  02:32      0.75    0.78    0.89
  WS02004139WS02001211 CONDUIT    380.63     0  03:16      0.69    0.48    0.60
  WS02004138WS02004139 CONDUIT    380.00     0  02:00      2.94    0.08    0.44
  WS02003067WS02003066 CONDUIT    538.05     0  02:36      1.21    0.17    0.42
  WS02001213WS02003059 CONDUIT    389.23     0  03:17      0.68    0.64    0.77
  WS02001212WS02001213 CONDUIT    388.67     0  03:17      1.32    0.60    0.47
  WS02001211WS02001212 CONDUIT    388.33     0  03:16      0.78    0.30    0.65
  WS02003072WS02003073 CONDUIT    939.31     0  02:40      1.73    2.03    0.49
  WS02003069WS02003072 CONDUIT    939.31     0  02:39      1.62    0.45    0.51
  WS02003060WS02003069 CONDUIT    939.03     0  02:39      1.87    0.37    0.46
  WS02003059WS02003060 CONDUIT    389.97     0  03:18      0.93    0.25    0.66
  HS02004901HS02004770 CONDUIT     12.91     0  02:13      0.05    0.05    0.35
  HS02004876HS02004881 CONDUIT     43.89     0  02:16      0.66    0.47    0.09
  HS02004870HS02004876 CONDUIT     34.92     0  02:17      0.46    0.02    0.11
  HS02004842HS02004848 CONDUIT      6.44     0  02:29      0.03    0.00    0.28
  HS02004837HS02004842 CONDUIT      6.66     0  02:30      0.41    0.00    0.30
  HS02004830HS02004837 CONDUIT     27.63     0  02:17      0.47    0.03    0.08
  HS02004824HS02004830 CONDUIT     27.78     0  02:17      0.51    0.04    0.08
  HS02004817HS02004824 CONDUIT     46.16     0  02:20      0.17    0.02    0.42
  HS02004770HS02004777 CONDUIT     65.68     0  02:13      0.26    0.12    0.36
  HS02004799HS02004480 CONDUIT    162.16     0  02:15      0.66    0.20    0.35
  HS02004792HS02004799 CONDUIT    148.18     0  02:14      0.76    0.09    0.28
  HS02004788HS02004792 CONDUIT     86.18     0  02:15      0.90    0.06    0.14
  HS02004785HS02004788 CONDUIT     65.30     0  02:15      0.57    0.49    0.16
  HS02004777HS02004785 CONDUIT     65.24     0  02:14      0.32    0.08    0.30
  HS02004480HS02004478 CONDUIT    191.50     0  02:15      1.05    0.81    0.26
  HS02004479HS02004480 CONDUIT     30.03     0  02:17      0.16    0.03    0.34
  HS02004862HS02004870 CONDUIT     25.61     0  02:18      0.51    0.03    0.07
  HS02004848HS02004852 CONDUIT     10.62     0  02:17      0.34    0.01    0.04
  HS02004856HS02004862 CONDUIT     17.50     0  02:17      0.38    0.02    0.07
  HS02004852HS02004856 CONDUIT     10.59     0  02:18      0.15    0.01    0.10
  HS02004802HS02004478 CONDUIT     64.70     0  02:20      0.34    0.06    0.28
  HS02004478WS02006287 CONDUIT    254.11     0  02:16      1.44    0.07    0.20
  HS02004817HS02004807 CONDUIT     47.48     0  02:22      0.13    0.03    0.54
  HS02004807HS02004802 CONDUIT     64.20     0  02:19      0.28    0.12    0.33
  YS02001759YS02001757 CONDUIT    266.37     0  02:53      0.34    0.19    1.00
  YS02001762YS02001759 CONDUIT    145.08     0  02:53      0.18    0.17    1.00
  YS02001765YS02001762 CONDUIT    144.28     0  02:55      0.23    0.14    1.00
  YS02001770YS02001767 CONDUIT    151.00     0  02:47      0.32    0.60    1.00
  YS02001774YS02001770 CONDUIT     49.59     0  02:13      0.14    0.03    1.00
  YS02001779YS02001774 CONDUIT     42.24     0  03:44      0.08    0.02    1.00
  YS02001649YS02001757 CONDUIT    418.56     0  02:54      0.53    0.25    1.00
  YS02001767YS02001765 CONDUIT    142.93     0  02:55      0.26    0.18    1.00
  YS02006561YS02001783 CONDUIT    423.18     0  02:57      1.93    0.22    0.45
  YS02001783YS02001784 CONDUIT    422.58     0  02:57      1.36    0.58    0.59
  YS02001784YS02001785 CONDUIT    423.26     0  02:57      1.46    0.98    0.56
  YS02001788YS02001790 CONDUIT    423.25     0  02:58      2.02    0.31    0.43
  YS02001790YS02001791 CONDUIT    423.23     0  02:58      2.35    0.46    0.39
  YS02001791YS02001793 CONDUIT    423.26     0  02:58      4.33    0.18    0.25
  YS02001910YS02001907 CONDUIT    134.09     0  02:57      0.49    0.08    0.81
  YS02001786YS02001788 CONDUIT    423.20     0  02:58      1.91    0.82    0.45
  YS02001915YS02001910 CONDUIT    133.20     0  02:58      0.45    0.07    0.60
  YS02001918YS02001915 CONDUIT     45.85     0  03:05      0.44    0.03    0.32
  YS02001923YS02001920 CONDUIT     41.53     0  03:01      0.50    0.02    0.16
  YS02001926YS02001923 CONDUIT     41.49     0  03:01      0.55    0.06    0.15
  YS02001929YS02001926 CONDUIT     41.52     0  03:01      0.59    0.02    0.15
  YS02001920YS02001918 CONDUIT     44.70     0  03:02      0.51    0.04    0.19
  YS02001629YS02163301 CONDUIT    122.84     0  02:36      0.16    0.15    1.00
  YS02001619YS02001622 CONDUIT    159.28     0  03:52      0.70    0.23    1.00
  YS02001622YS02001625 CONDUIT    213.85     0  03:51      0.28    0.11    1.00
  YS02001625YS02001629 CONDUIT    214.18     0  03:51      0.29    0.10    1.00
  YS02163301YS02001633 CONDUIT    100.31     0  02:41      0.13    0.09    1.00
  YS02163601YS02164001 CONDUIT    188.29     0  03:03      0.24    0.17    1.00
  YS02164001YS02001641 CONDUIT    188.03     0  02:55      0.24    0.26    1.00
  YS02001641YS02001644 CONDUIT    188.22     0  03:02      0.24    0.61    1.00
  YS02001647YS02001649 CONDUIT    323.28     0  02:51      0.41    0.17    1.00
  YS02006553YS02006556 CONDUIT    293.42     0  02:57      0.40    0.25    0.89
  YS02006556YS02006558 CONDUIT    293.12     0  02:57      0.39    0.23    0.92
  YSB6556YSB1171       CONDUIT     16.30     0  02:18      0.07    0.02    0.61
  YS02001907YS02006553 CONDUIT    294.45     0  02:57      0.33    0.35    1.00
  YS02006558YS02006561 CONDUIT    444.14     0  02:58      2.62    0.98    0.58
  YS02001633YS02163601 CONDUIT    189.15     0  03:03      0.24    0.20    1.00
  YS02001644YS02001647 CONDUIT    281.09     0  02:56      0.36    0.17    1.00
  YS02001745YS02001748 CONDUIT    204.56     0  04:07      1.48    0.08    0.83
  YS02001748YS02001751 CONDUIT    247.76     0  03:43      1.15    0.13    1.00
  YS02001751YS02001754 CONDUIT    178.04     0  03:08      1.01    0.09    1.00
  YS02001754YS02001757 CONDUIT    145.26     0  03:40      0.33    0.06    1.00
  YS02001882YS02001884 CONDUIT      4.74     0  02:05      0.06    0.01    0.54
  YS02001884YS02001887 CONDUIT     13.70     0  02:05      0.06    0.02    0.63
  YS02001890YS02001895 CONDUIT    157.49     0  02:43      0.33    0.07    0.60
  YS02001895YS02001898 CONDUIT    156.95     0  02:43      0.50    0.27    0.46
  YS02001898YS02001901 CONDUIT    156.86     0  02:43      0.37    0.10    0.54
  YS02001901YS02001904 CONDUIT    156.62     0  02:57      0.33    0.24    0.59
  YS02001904YS02001907 CONDUIT    158.25     0  02:57      0.25    0.06    0.75
  YS02001887YS02001890 CONDUIT    158.21     0  02:41      0.28    0.27    0.69
  YS02001652YS02001649 CONDUIT    164.79     0  02:48      0.34    0.08    1.00
  YS02001655YS02001652 CONDUIT    201.31     0  02:51      1.08    0.10    1.00
  YS02001658YS02001655 CONDUIT    281.46     0  03:43      1.33    0.12    1.00
  YS02001661YS02001658 CONDUIT    270.18     0  03:58      1.55    0.11    0.85
  YS02001664YS02001661 CONDUIT    112.77     0  02:44      1.26    0.04    0.51
  YSB1154YSB6556       CONDUIT     15.99     0  02:16      0.19    0.03    0.50
  YSB1174YSB1171       CONDUIT     14.68     0  02:10      0.06    0.02    0.62
  YSB1171HS02004479    CONDUIT     29.76     0  02:16      0.54    0.02    0.48
  HS02004881HS02006253 CONDUIT     49.05     0  02:16      1.82    0.01    0.14
  YS02001793JiankangQianchi CONDUIT    423.26     0  02:58     14.48    0.03    0.50
  YS02001757CaochengTiaoxuchi CONDUIT    717.79     0  02:58      1.50    0.32    1.00
  WSF200WS02003060     CONDUIT    538.17     0  02:37      1.59    0.12    0.34
  1                    CONDUIT    941.16     0  02:40      3.27    0.33    0.39
  2                    CONDUIT      1.77     0  02:35      1.45    0.00    0.05
  3                    CONDUIT    507.48     0  02:33      9.81    0.81    0.69
  4                    CONDUIT      0.00     0  00:00      0.00    0.00    0.00
  CC-Pump-1            PUMP         0.00     0  00:00              0.00
  CC-Pump-2            PUMP       200.00     0  02:18              1.00
  JK-Pump-1            PUMP       300.00     0  00:00              1.00
  JK-Pump-2            PUMP       300.00     0  02:23              1.00
  XR-Pump-1            PUMP        95.00     0  00:00              1.00
  XR-Pump-2            PUMP        95.00     0  02:00              1.00
  XR-Pump-3            PUMP        95.00     0  00:00              1.00
  XR-Pump-4            PUMP        95.00     0  02:00              1.00
  
  
  ***************************
  Flow Classification Summary
  ***************************
  
  -------------------------------------------------------------------------------------
                      Adjusted    ---------- Fraction of Time in Flow Class ---------- 
                       /Actual         Up    Down  Sub   Sup   Up    Down  Norm  Inlet 
  Conduit               Length    Dry  Dry   Dry   Crit  Crit  Crit  Crit  Ltd   Ctrl  
  -------------------------------------------------------------------------------------
  WS02003066WSF200        1.00   0.06  0.00  0.00  0.00  0.94  0.00  0.00  0.69  0.00
  WS02006287WS02006284    1.00   0.04  0.02  0.00  0.62  0.32  0.00  0.00  0.77  0.00
  WS02006284WS02006280    1.00   0.05  0.00  0.00  0.00  0.00  0.00  0.95  0.00  0.00
  WS02006280WS02006229    1.00   0.05  0.00  0.00  0.00  0.00  0.00  0.95  0.00  0.00
  WS02006229WS02006228    1.00   0.00  0.00  0.00  0.99  0.00  0.00  0.01  0.00  0.00
  WS02006256WS02006235    1.00   0.00  0.00  0.00  1.00  0.00  0.00  0.00  0.00  0.00
  WS02006253WS02006251    1.00   0.03  0.01  0.00  0.95  0.00  0.00  0.00  0.00  0.00
  WS02006252WS02006251    1.00   0.08  0.00  0.00  0.00  0.00  0.91  0.00  0.00  0.00
  WS02006251WS02006249    1.00   0.00  0.00  0.00  1.00  0.00  0.00  0.00  0.34  0.00
  WS02006249WS02006248    1.00   0.00  0.02  0.00  0.88  0.00  0.10  0.00  0.00  0.00
  WS02006248WS02006247    1.00   0.02  0.00  0.00  0.97  0.00  0.00  0.00  0.24  0.00
  WS02006247WS02006245    1.00   0.02  0.00  0.00  0.97  0.00  0.00  0.00  0.00  0.00
  WS02006245WS02006243    1.00   0.01  0.00  0.00  0.94  0.00  0.00  0.04  0.05  0.00
  WS02006243WS02006242    1.00   0.01  0.00  0.00  0.99  0.00  0.00  0.00  0.26  0.00
  WS02006242WS02006240    1.00   0.00  0.00  0.00  1.00  0.00  0.00  0.00  0.00  0.00
  WS02006240WS02006239    1.00   0.00  0.00  0.00  0.95  0.00  0.00  0.04  0.01  0.00
  WS02006239WS02006238    1.00   0.00  0.00  0.00  1.00  0.00  0.00  0.00  0.00  0.00
  WS02006238WS02006235    1.00   0.00  0.00  0.00  1.00  0.00  0.00  0.00  0.00  0.00
  WS02006235WS02006234    1.00   0.00  0.00  0.00  0.95  0.00  0.05  0.00  0.00  0.00
  WS02006234WS02006232    1.00   0.00  0.00  0.00  1.00  0.00  0.00  0.00  0.15  0.00
  WS02006232WS02006231    1.00   0.00  0.00  0.00  0.99  0.00  0.00  0.00  0.00  0.00
  WS02006231WS02006230    1.00   0.00  0.00  0.00  0.51  0.00  0.48  0.00  0.00  0.00
  WS02006230WS02006229    1.00   0.00  0.00  0.00  0.98  0.00  0.00  0.02  0.01  0.00
  WS02006228WS02006109    1.00   0.00  0.00  0.00  1.00  0.00  0.00  0.00  0.00  0.00
  WS02006116WS02004401    1.00   0.03  0.00  0.00  0.97  0.00  0.00  0.00  0.00  0.00
  WS02006115WS02006116    1.00   0.03  0.00  0.00  0.97  0.00  0.00  0.01  0.00  0.00
  WS02006113WS02006111    1.00   0.02  0.00  0.00  0.00  0.98  0.00  0.00  0.12  0.00
  WS02006112WS02006115    1.00   0.02  0.00  0.00  0.97  0.00  0.00  0.00  0.00  0.00
  WS02006111WS02006112    1.00   0.02  0.00  0.00  0.97  0.00  0.00  0.00  0.98  0.00
  WS02006110WS02006113    1.00   0.01  0.01  0.00  0.98  0.00  0.00  0.00  0.00  0.00
  WS02006109WS02006110    1.00   0.00  0.01  0.00  0.98  0.00  0.01  0.00  0.00  0.00
  WS02004411WS02004412    1.00   0.04  0.00  0.00  0.96  0.00  0.00  0.00  0.00  0.00
  WS02004401WS02004402    1.00   0.03  0.00  0.00  0.97  0.00  0.00  0.00  0.00  0.00
  WS02004413WS02003067    1.00   0.04  0.01  0.00  0.00  0.00  0.94  0.00  0.00  0.00
  WS02004412WS02004413    1.00   0.04  0.00  0.00  0.96  0.00  0.00  0.00  0.03  0.00
  WS02004410WS02004411    1.00   0.04  0.00  0.00  0.96  0.00  0.00  0.00  0.04  0.00
  WS02004409WS02004410    1.00   0.04  0.00  0.00  0.96  0.00  0.00  0.00  0.04  0.00
  WS02004407WS02004409    1.00   0.04  0.00  0.00  0.96  0.00  0.00  0.00  0.89  0.00
  WS02004406WS02004407    1.00   0.00  0.04  0.00  0.96  0.00  0.00  0.00  0.00  0.00
  WS02004405WS02004406    1.00   0.00  0.00  0.00  1.00  0.00  0.00  0.00  0.00  0.00
  WS02004404WS02004405    1.00   0.00  0.00  0.00  1.00  0.00  0.00  0.00  0.00  0.00
  WS02004403WS02004404    1.00   0.00  0.03  0.00  0.97  0.00  0.00  0.00  0.01  0.00
  WS02004402WS02004403    1.00   0.03  0.00  0.00  0.97  0.00  0.00  0.00  0.00  0.00
  WS02004139WS02001211    1.00   0.00  0.00  0.00  1.00  0.00  0.00  0.00  0.00  0.00
  WS02004138WS02004139    1.00   0.00  0.00  0.00  0.99  0.01  0.00  0.00  1.00  0.00
  WS02003067WS02003066    1.00   0.06  0.00  0.00  0.94  0.00  0.00  0.00  0.00  0.00
  WS02001213WS02003059    1.00   0.00  0.00  0.00  0.99  0.00  0.00  0.00  0.00  0.00
  WS02001212WS02001213    1.00   0.00  0.00  0.00  0.90  0.00  0.09  0.00  0.00  0.00
  WS02001211WS02001212    1.00   0.00  0.00  0.00  1.00  0.00  0.00  0.00  0.00  0.00
  WS02003072WS02003073    1.00   0.00  0.00  0.00  0.00  0.00  0.00  1.00  0.00  0.00
  WS02003069WS02003072    1.00   0.00  0.00  0.00  0.99  0.01  0.00  0.00  0.23  0.00
  WS02003060WS02003069    1.00   0.00  0.00  0.00  0.99  0.01  0.00  0.00  0.20  0.00
  WS02003059WS02003060    1.00   0.00  0.00  0.00  1.00  0.00  0.00  0.00  0.01  0.00
  HS02004901HS02004770    1.00   0.05  0.00  0.00  0.95  0.00  0.00  0.00  0.02  0.00
  HS02004876HS02004881    1.00   0.02  0.00  0.00  0.98  0.00  0.00  0.00  0.00  0.00
  HS02004870HS02004876    1.00   0.01  0.00  0.00  0.99  0.00  0.00  0.00  0.95  0.00
  HS02004842HS02004848    1.00   0.00  0.05  0.00  0.95  0.00  0.00  0.00  0.67  0.00
  HS02004837HS02004842    1.00   0.00  0.00  0.00  0.99  0.01  0.00  0.00  0.11  0.00
  HS02004830HS02004837    1.00   0.00  0.00  0.00  1.00  0.00  0.00  0.00  0.99  0.00
  HS02004824HS02004830    1.00   0.00  0.00  0.00  1.00  0.00  0.00  0.00  0.00  0.00
  HS02004817HS02004824    1.00   0.00  0.00  0.00  1.00  0.00  0.00  0.00  1.00  0.00
  HS02004770HS02004777    1.00   0.00  0.05  0.00  0.95  0.00  0.00  0.00  0.07  0.00
  HS02004799HS02004480    1.00   0.00  0.03  0.00  0.94  0.00  0.03  0.00  0.00  0.00
  HS02004792HS02004799    1.00   0.00  0.00  0.00  0.99  0.01  0.00  0.00  0.98  0.00
  HS02004788HS02004792    1.00   0.00  0.00  0.00  0.99  0.01  0.00  0.00  0.98  0.00
  HS02004785HS02004788    1.00   0.00  0.00  0.00  1.00  0.00  0.00  0.00  0.00  0.00
  HS02004777HS02004785    1.00   0.00  0.00  0.00  1.00  0.00  0.00  0.00  0.20  0.00
  HS02004480HS02004478    1.00   0.05  0.00  0.00  0.68  0.00  0.00  0.27  0.00  0.00
  HS02004479HS02004480    1.00   0.03  0.00  0.00  0.97  0.00  0.00  0.00  0.16  0.00
  HS02004862HS02004870    1.00   0.00  0.00  0.00  1.00  0.00  0.00  0.00  0.06  0.00
  HS02004848HS02004852    1.00   0.05  0.00  0.00  0.95  0.00  0.00  0.00  0.71  0.00
  HS02004856HS02004862    1.00   0.00  0.07  0.00  0.93  0.00  0.00  0.00  0.75  0.00
  HS02004852HS02004856    1.00   0.05  0.01  0.00  0.95  0.00  0.00  0.00  0.83  0.00
  HS02004802HS02004478    1.00   0.05  0.00  0.00  0.95  0.00  0.00  0.00  0.01  0.00
  HS02004478WS02006287    1.00   0.06  0.00  0.00  0.82  0.12  0.00  0.00  0.75  0.00
  HS02004817HS02004807    1.00   0.00  0.05  0.00  0.95  0.00  0.00  0.00  0.00  0.00
  HS02004807HS02004802    1.00   0.05  0.00  0.00  0.95  0.00  0.00  0.00  0.01  0.00
  YS02001759YS02001757    1.00   0.00  0.00  0.00  1.00  0.00  0.00  0.00  0.17  0.00
  YS02001762YS02001759    1.00   0.00  0.00  0.00  1.00  0.00  0.00  0.00  0.04  0.00
  YS02001765YS02001762    1.00   0.00  0.00  0.00  1.00  0.00  0.00  0.00  0.22  0.00
  YS02001770YS02001767    1.00   0.00  0.00  0.00  1.00  0.00  0.00  0.00  0.00  0.00
  YS02001774YS02001770    1.00   0.00  0.05  0.00  0.95  0.00  0.00  0.00  0.06  0.00
  YS02001779YS02001774    1.00   0.00  0.00  0.00  1.00  0.00  0.00  0.00  0.26  0.00
  YS02001649YS02001757    1.00   0.00  0.00  0.00  1.00  0.00  0.00  0.00  0.19  0.00
  YS02001767YS02001765    1.00   0.00  0.00  0.00  1.00  0.00  0.00  0.00  0.01  0.00
  YS02006561YS02001783    1.00   0.07  0.00  0.00  0.00  0.93  0.00  0.00  0.63  0.00
  YS02001783YS02001784    1.00   0.00  0.07  0.00  0.93  0.00  0.00  0.00  0.00  0.00
  YS02001784YS02001785    1.00   0.00  0.00  0.00  1.00  0.00  0.00  0.00  0.25  0.00
  YS02001788YS02001790    1.00   0.00  0.00  0.00  0.07  0.93  0.00  0.00  0.71  0.00
  YS02001790YS02001791    1.00   0.00  0.00  0.00  0.02  0.98  0.00  0.00  0.61  0.00
  YS02001791YS02001793    1.00   0.00  0.00  0.00  0.00  1.00  0.00  0.00  0.00  0.00
  YS02001910YS02001907    1.00   0.00  0.00  0.00  0.97  0.00  0.00  0.03  0.13  0.00
  YS02001786YS02001788    1.00   0.00  0.00  0.00  0.07  0.93  0.00  0.00  0.00  0.00
  YS02001915YS02001910    1.00   0.00  0.00  0.00  0.99  0.01  0.00  0.00  0.24  0.00
  YS02001918YS02001915    1.00   0.00  0.01  0.00  0.98  0.01  0.00  0.00  0.71  0.00
  YS02001923YS02001920    1.00   0.00  0.00  0.00  1.00  0.00  0.00  0.00  1.00  0.00
  YS02001926YS02001923    1.00   0.00  0.04  0.00  0.00  0.00  0.96  0.00  0.00  0.00
  YS02001929YS02001926    1.00   0.00  0.05  0.00  0.95  0.00  0.00  0.00  0.87  0.00
  YS02001920YS02001918    1.00   0.00  0.01  0.00  0.99  0.00  0.00  0.00  0.00  0.00
  YS02001629YS02163301    1.00   0.06  0.00  0.00  0.94  0.00  0.00  0.00  0.00  0.00
  YS02001619YS02001622    1.00   0.05  0.00  0.00  0.95  0.00  0.00  0.00  0.00  0.00
  YS02001622YS02001625    1.00   0.05  0.00  0.00  0.95  0.00  0.00  0.00  0.12  0.00
  YS02001625YS02001629    1.00   0.05  0.02  0.00  0.91  0.00  0.02  0.00  0.00  0.00
  YS02163301YS02001633    1.00   0.00  0.06  0.00  0.94  0.00  0.00  0.00  0.00  0.00
  YS02163601YS02164001    1.00   0.00  0.04  0.00  0.96  0.00  0.00  0.00  0.00  0.00
  YS02164001YS02001641    1.00   0.01  0.03  0.00  0.96  0.00  0.00  0.00  0.07  0.00
  YS02001641YS02001644    1.00   0.00  0.01  0.00  0.99  0.00  0.00  0.00  0.00  0.00
  YS02001647YS02001649    1.00   0.00  0.07  0.00  0.93  0.00  0.00  0.00  0.01  0.00
  YS02006553YS02006556    1.00   0.01  0.00  0.00  0.99  0.00  0.00  0.00  0.03  0.00
  YS02006556YS02006558    1.00   0.00  0.00  0.00  1.00  0.00  0.00  0.00  0.00  0.00
  YSB6556YSB1171          1.00   0.03  0.02  0.00  0.96  0.00  0.00  0.00  0.00  0.00
  YS02001907YS02006553    1.00   0.00  0.02  0.00  0.97  0.00  0.00  0.00  0.00  0.00
  YS02006558YS02006561    1.00   0.07  0.00  0.00  0.00  0.93  0.00  0.00  0.63  0.00
  YS02001633YS02163601    1.00   0.00  0.01  0.00  0.99  0.00  0.00  0.00  0.19  0.00
  YS02001644YS02001647    1.00   0.00  0.07  0.00  0.93  0.00  0.00  0.00  0.00  0.00
  YS02001745YS02001748    1.00   0.00  0.00  0.00  0.87  0.01  0.00  0.12  0.13  0.00
  YS02001748YS02001751    1.00   0.00  0.00  0.00  0.97  0.03  0.00  0.00  0.23  0.00
  YS02001751YS02001754    1.00   0.00  0.00  0.00  0.93  0.00  0.00  0.07  0.01  0.00
  YS02001754YS02001757    1.00   0.00  0.00  0.00  0.99  0.01  0.00  0.00  0.26  0.00
  YS02001882YS02001884    1.00   0.06  0.00  0.00  0.94  0.00  0.00  0.00  0.00  0.00
  YS02001884YS02001887    1.00   0.03  0.01  0.00  0.96  0.00  0.00  0.00  0.00  0.00
  YS02001890YS02001895    1.00   0.00  0.06  0.00  0.94  0.00  0.00  0.00  0.00  0.00
  YS02001895YS02001898    1.00   0.06  0.00  0.00  0.93  0.00  0.01  0.00  0.00  0.00
  YS02001898YS02001901    1.00   0.06  0.00  0.00  0.94  0.00  0.00  0.00  0.02  0.00
  YS02001901YS02001904    1.00   0.06  0.00  0.00  0.94  0.00  0.00  0.00  0.00  0.00
  YS02001904YS02001907    1.00   0.00  0.06  0.00  0.94  0.00  0.00  0.00  0.00  0.00
  YS02001887YS02001890    1.00   0.00  0.00  0.00  0.97  0.00  0.02  0.00  0.00  0.00
  YS02001652YS02001649    1.00   0.00  0.00  0.00  1.00  0.00  0.00  0.00  0.25  0.00
  YS02001655YS02001652    1.00   0.00  0.00  0.00  0.93  0.00  0.00  0.07  0.02  0.00
  YS02001658YS02001655    1.00   0.00  0.05  0.00  0.92  0.03  0.00  0.00  0.09  0.00
  YS02001661YS02001658    1.00   0.05  0.00  0.00  0.87  0.08  0.00  0.00  0.14  0.00
  YS02001664YS02001661    1.00   0.04  0.00  0.00  0.72  0.24  0.00  0.00  0.54  0.00
  YSB1154YSB6556          1.00   0.04  0.00  0.00  0.96  0.00  0.00  0.00  0.02  0.00
  YSB1174YSB1171          1.00   0.03  0.01  0.00  0.96  0.00  0.00  0.00  0.00  0.00
  YSB1171HS02004479       1.00   0.03  0.00  0.00  0.97  0.00  0.00  0.00  0.13  0.00
  HS02004881HS02006253    1.00   0.03  0.00  0.00  0.84  0.01  0.00  0.12  0.59  0.00
  YS02001793JiankangQianchi    1.00   0.00  0.00  0.00  0.02  0.98  0.00  0.00  0.02  0.00
  YS02001757CaochengTiaoxuchi    1.00   0.00  0.08  0.00  0.92  0.00  0.00  0.00  0.00  0.00
  WSF200WS02003060        1.00   0.00  0.06  0.00  0.94  0.00  0.00  0.00  0.62  0.00
  1                       1.00   0.00  0.00  0.00  0.00  1.00  0.00  0.00  0.26  0.00
  2                       1.00   0.95  0.00  0.00  0.00  0.05  0.00  0.00  0.01  0.00
  3                       1.00   0.07  0.00  0.00  0.00  0.93  0.00  0.00  0.26  0.00
  4                       1.00   1.00  0.00  0.00  0.00  0.00  0.00  0.00  0.00  0.00
  
  
  *************************
  Conduit Surcharge Summary
  *************************
  
  ----------------------------------------------------------------------------
                                                           Hours        Hours 
                         --------- Hours Full --------   Above Full   Capacity
  Conduit                Both Ends  Upstream  Dnstream   Normal Flow   Limited
  ----------------------------------------------------------------------------
  WS02006229WS02006228        1.07      1.13      1.07      4.64         1.07
  WS02006256WS02006235        5.76      5.76      6.55      5.66         0.01
  WS02006249WS02006248        0.01      0.01      0.01      4.55         0.01
  WS02006247WS02006245        0.01      0.01      0.01      4.66         0.01
  WS02006243WS02006242        0.01      0.01      0.10      0.01         0.01
  WS02006242WS02006240        0.01      0.01      0.32      0.01         0.01
  WS02006240WS02006239        0.01      0.01      0.11      0.01         0.01
  WS02006239WS02006238        0.40      0.40      0.52      0.01         0.01
  WS02006238WS02006235        0.49      0.49      0.67      0.01         0.01
  WS02006235WS02006234        0.17      0.17      0.43      5.78         0.01
  WS02006234WS02006232        0.33      0.33      0.83      0.01         0.01
  WS02006232WS02006231        0.01      0.01      0.83      0.01         0.01
  WS02006231WS02006230        0.01      0.01      0.01      5.77         0.01
  WS02006230WS02006229        1.75      4.45      1.75      5.86         1.75
  WS02006228WS02006109        1.10      1.35      1.10      4.82         1.10
  WS02006112WS02006115        0.01      0.01      0.46      0.01         0.01
  WS02006111WS02006112        0.01      0.01      4.58      0.01         0.01
  WS02006110WS02006113        0.01      0.01      1.22      0.01         0.01
  WS02006109WS02006110        0.22      0.22      1.35      0.22         0.01
  WS02004405WS02004406        0.01      0.01      0.01      0.34         0.01
  WS02004404WS02004405        0.01      0.01      0.01      5.65         0.01
  WS02003072WS02003073        0.01      0.01      0.01      5.34         0.01
  YS02001759YS02001757        5.35      5.35      5.43      0.01         0.01
  YS02001762YS02001759        5.32      5.32      5.35      0.01         0.01
  YS02001765YS02001762        5.28      5.28      5.32      0.01         0.01
  YS02001770YS02001767        5.22      5.22      5.23      0.01         0.65
  YS02001774YS02001770        5.15      5.15      5.31      0.01         0.01
  YS02001779YS02001774        4.18      4.18      5.31      0.01         0.01
  YS02001649YS02001757        5.33      5.33      5.43      0.01         0.01
  YS02001767YS02001765        5.23      5.23      5.28      0.01         0.01
  YS02001629YS02163301        5.13      5.13      5.20      0.01         0.01
  YS02001619YS02001622        2.98      2.98      3.23      0.01         0.02
  YS02001622YS02001625        3.23      3.23      4.94      0.01         0.01
  YS02001625YS02001629        3.01      3.01      4.94      0.01         0.01
  YS02163301YS02001633        5.20      5.20      5.28      0.01         0.01
  YS02163601YS02164001        5.27      5.27      5.34      0.01         0.01
  YS02164001YS02001641        5.27      5.27      5.30      0.01         0.01
  YS02001641YS02001644        5.30      5.30      5.30      0.01         0.54
  YS02001647YS02001649        4.75      4.75      5.33      0.01         0.01
  YS02001907YS02006553        0.01      0.01      0.63      0.01         0.01
  YS02001633YS02163601        5.26      5.26      5.34      0.01         0.01
  YS02001644YS02001647        4.75      4.75      5.30      0.01         0.01
  YS02001745YS02001748        0.01      0.01      0.51      0.01         0.01
  YS02001748YS02001751        1.83      1.83      3.38      0.01         0.01
  YS02001751YS02001754        3.38      3.38      4.32      0.01         0.01
  YS02001754YS02001757        4.71      4.71      5.43      0.01         0.01
  YS02001652YS02001649        4.89      4.89      5.33      0.01         0.01
  YS02001655YS02001652        3.59      3.59      4.55      0.01         0.01
  YS02001658YS02001655        0.81      0.81      3.59      0.01         0.01
  YS02001661YS02001658        0.01      0.01      0.81      0.01         0.01
  YS02001793JiankangQianchi        0.01      0.01      0.09      0.01         0.01
  YS02001757CaochengTiaoxuchi        2.43      2.43      5.43      0.01         0.01
  
  
  ***************
  Pumping Summary
  ***************
  
  ---------------------------------------------------------------------------------------------------------
                                                  Min       Avg       Max     Total     Power    % Time Off
                        Percent   Number of      Flow      Flow      Flow    Volume     Usage    Pump Curve
  Pump                 Utilized   Start-Ups       LPS       LPS       LPS  10^6 ltr     Kw-hr    Low   High
  ---------------------------------------------------------------------------------------------------------
  CC-Pump-1                0.00           0      0.00      0.00      0.00     0.000      0.00    0.0    0.0
  CC-Pump-2               62.89           2      0.00    194.07    200.00     3.400      7.40    0.0   14.5
  JK-Pump-1              100.00           1      0.00    181.12    300.00     3.711     72.73    0.0    0.0
  JK-Pump-2               68.07           2      0.00    187.02    300.00     3.216     63.85    0.0    0.0
  XR-Pump-1               91.48           2      0.00     93.07     95.00     2.394     44.19    0.0    0.0
  XR-Pump-2               76.59           1      0.00     94.75     95.00     2.023     44.19    0.0    0.0
  XR-Pump-3              100.00           1      0.00     95.00     95.00     2.679     51.50    0.0    0.0
  XR-Pump-4               76.59           1      0.00     94.75     95.00     2.023     44.19    0.0    0.0
  

  Analysis begun on:  Tue Dec 21 18:04:22 2021
  Analysis ended on:  Tue Dec 21 18:04:26 2021
  Total elapsed time: 00:00:04