
  EPA STORM WATER MANAGEMENT MODEL - VERSION 5.1 (Build 5.3.0.dev0)
  --------------------------------------------------------------

  WARNING 04: minimum elevation drop used for Conduit WS02004404WS02004405
  WARNING 03: negative offset ignored for Link YS02001904YS02001907
  
  *********************************************************
  NOTE: The summary statistics displayed in this report are
  based on results found at every computational time step,  
  not just on results from each reporting time step.
  *********************************************************
  
  ****************
  Analysis Options
  ****************
  Flow Units ............... LPS
  Process Models:
    Rainfall/Runoff ........ YES
    RDII ................... NO
    Snowmelt ............... NO
    Groundwater ............ NO
    Flow Routing ........... YES
    Ponding Allowed ........ NO
    Water Quality .......... NO
  Infiltration Method ...... HORTON
  Flow Routing Method ...... DYNWAVE
  Surcharge Method ......... EXTRAN
  Starting Date ............ 08/28/2015 08:00:00
  Ending Date .............. 08/28/2015 15:50:00
  Antecedent Dry Days ...... 8.0
  Report Time Step ......... 00:01:00
  Wet Time Step ............ 00:01:00
  Dry Time Step ............ 00:01:00
  Routing Time Step ........ 5.00 sec
  Variable Time Step ....... YES
  Maximum Trials ........... 8
  Number of Threads ........ 4
  Head Tolerance ........... 0.001500 m
  
  
  **************************        Volume         Depth
  Runoff Quantity Continuity     hectare-m            mm
  **************************     ---------       -------
  Total Precipitation ......         3.299         7.222
  Evaporation Loss .........         0.000         0.000
  Infiltration Loss ........         0.835         1.829
  Surface Runoff ...........         1.533         3.357
  Final Storage ............         0.931         2.037
  Continuity Error (%) .....        -0.018
  
  
  **************************        Volume        Volume
  Flow Routing Continuity        hectare-m      10^6 ltr
  **************************     ---------     ---------
  Dry Weather Inflow .......         0.616         6.165
  Wet Weather Inflow .......         1.532        15.323
  Groundwater Inflow .......         0.000         0.000
  RDII Inflow ..............         0.000         0.000
  External Inflow ..........         0.102         1.024
  External Outflow .........         1.596        15.956
  Flooding Loss ............         0.218         2.176
  Evaporation Loss .........         0.000         0.000
  Exfiltration Loss ........         0.000         0.000
  Initial Stored Volume ....         0.076         0.761
  Final Stored Volume ......         0.568         5.682
  Continuity Error (%) .....        -2.332
  
  
  *************************
  Highest Continuity Errors
  *************************
  Node YS02001774 (26.66%)
  Node HS02004842 (24.59%)
  Node YS02001884 (18.63%)
  Node JK-storage (-11.54%)
  Node YSB1171 (5.53%)
  
  
  ***************************
  Time-Step Critical Elements
  ***************************
  Link WS02006252WS02006251 (71.71%)
  Link 3 (22.24%)
  Link WS02006280WS02006229 (1.64%)
  
  
  ********************************
  Highest Flow Instability Indexes
  ********************************
  Link WS02006113WS02006111 (47)
  Link YS02001793JiankangQianchi (31)
  Link YS02001791YS02001793 (28)
  Link WS02006111WS02006112 (28)
  Link YS02001779YS02001774 (24)
  
  
  *************************
  Routing Time Step Summary
  *************************
  Minimum Time Step           :     0.13 sec
  Average Time Step           :     0.84 sec
  Maximum Time Step           :     5.00 sec
  Percent in Steady State     :    -0.00
  Average Iterations per Step :     4.64
  Percent Not Converging      :    30.64
  
  
  ***************************
  Subcatchment Runoff Summary
  ***************************
  
  ------------------------------------------------------------------------------------------------------------------------------
                            Total      Total      Total      Total     Imperv       Perv      Total       Total     Peak  Runoff
                           Precip      Runon       Evap      Infil     Runoff     Runoff     Runoff      Runoff   Runoff   Coeff
  Subcatchment                 mm         mm         mm         mm         mm         mm         mm    10^6 ltr      LPS
  ------------------------------------------------------------------------------------------------------------------------------
  sub0                       7.22       0.00       0.00       0.51       5.45       0.00       5.45        0.00     1.87   0.755
  sub1                       7.22       0.00       0.00       0.79       5.17       0.00       5.17        0.03    10.07   0.716
  sub2                       7.22       0.00       0.00       2.67       3.64       0.00       3.64        0.03     8.96   0.504
  sub3                       7.22       0.00       0.00       2.67       3.61       0.00       3.61        0.08    18.60   0.499
  sub4                       7.22       0.00       0.00       0.79       5.03       0.00       5.03        0.10    21.02   0.696
  sub5                       7.22       0.00       0.00       0.51       5.40       0.00       5.40        0.06    17.91   0.748
  sub7                       7.22       0.00       0.00       0.65       5.32       0.00       5.32        0.02     6.25   0.736
  sub8                       7.22       0.00       0.00       0.65       5.31       0.00       5.31        0.03    11.07   0.735
  sub9                       7.22       0.00       0.00       0.65       5.31       0.00       5.31        0.03     8.21   0.735
  sub10                      7.22       0.00       0.00       0.58       5.35       0.00       5.35        0.06    17.84   0.741
  sub11                      7.22       0.00       0.00       0.58       5.37       0.00       5.37        0.06    20.80   0.743
  sub12                      7.22       0.00       0.00       0.94       5.09       0.00       5.09        0.04    17.39   0.705
  sub14                      7.22       0.00       0.00       0.65       5.30       0.00       5.30        0.05    16.06   0.734
  sub15                      7.22       0.00       0.00       2.17       4.08       0.00       4.08        0.07    21.83   0.565
  sub16                      7.22       0.00       0.00       2.38       3.92       0.00       3.92        0.04    15.34   0.543
  sub17                      7.22       0.00       0.00       2.31       3.98       0.00       3.98        0.03    12.43   0.551
  sub22                      7.22       0.00       0.00       3.11       3.33       0.00       3.33        0.21    71.06   0.461
  sub23                      7.22       0.00       0.00       2.67       3.68       0.00       3.68        0.18    60.47   0.510
  sub60                      7.22       0.00       0.00       0.87       3.78       0.00       3.78        1.14   112.07   0.523
  sub61                      7.22       0.00       0.00       1.23       3.98       0.00       3.98        1.23   138.95   0.551
  sub62                      7.22       0.00       0.00       0.58       4.28       0.00       4.28        1.32   142.49   0.593
  sub63                      7.22       0.00       0.00       2.09       3.52       0.00       3.52        1.07   129.10   0.488
  sub64                      7.22       0.00       0.00       1.08       3.61       0.00       3.61        1.10   106.54   0.500
  sub65                      7.22       0.00       0.00       0.94       3.66       0.00       3.66        1.13   108.21   0.507
  sub66                      7.22       0.00       0.00       2.09       3.14       0.00       3.14        0.96    97.28   0.435
  sub67                      7.22       0.00       0.00       0.58       4.65       0.00       4.65        1.44   180.98   0.644
  sub68                      7.22       0.00       0.00       1.01       4.22       0.00       4.22        1.30   153.18   0.584
  sub69                      7.22       0.00       0.00       1.08       4.50       0.00       4.50        1.05   150.30   0.622
  sub70                      7.22       4.59       0.00       4.02       5.68       0.00       5.68        1.30   127.11   0.481
  sub71                      7.22       0.00       0.00       0.58       4.12       0.00       4.12        0.97    99.87   0.570
  sub72                      7.22       0.00       0.00       0.51       3.01       0.00       3.01        0.61    48.25   0.416
  sub73                      7.22       5.52       0.00       4.33       5.90       0.00       5.90        1.39   110.44   0.463
  sub74                      7.22       0.00       0.00       5.42       1.35       0.00       1.35        0.54    83.48   0.187
  
  
  ******************
  Node Depth Summary
  ******************
  
  ---------------------------------------------------------------------------------
                                 Average  Maximum  Maximum  Time of Max    Reported
                                   Depth    Depth      HGL   Occurrence   Max Depth
  Node                 Type       Meters   Meters   Meters  days hr:min      Meters
  ---------------------------------------------------------------------------------
  WS02001211           JUNCTION     0.70     0.80     5.63     0  02:38        0.80
  WS02001212           JUNCTION     0.42     0.51     5.57     0  02:37        0.51
  WS02001213           JUNCTION     0.64     0.76     5.53     0  02:37        0.76
  WS02003069           JUNCTION     0.44     0.59     5.18     0  02:36        0.59
  WS02003072           JUNCTION     0.50     0.65     5.02     0  02:36        0.65
  WS02003073           JUNCTION     0.30     0.40     4.46     0  02:37        0.40
  WS02003060           JUNCTION     0.39     0.52     5.45     0  02:36        0.52
  WS02003066           JUNCTION     0.22     0.30     5.86     0  02:33        0.30
  WS02003059           JUNCTION     0.69     0.82     5.50     0  02:36        0.82
  WS02003067           JUNCTION     0.54     0.71     6.03     0  02:33        0.71
  WS02004401           JUNCTION     0.62     0.87     6.87     0  02:29        0.87
  WS02004402           JUNCTION     0.66     0.90     6.86     0  02:30        0.90
  WS02004403           JUNCTION     0.68     0.91     6.84     0  02:30        0.91
  WS02004404           JUNCTION     0.76     0.98     6.83     0  02:30        0.98
  WS02004406           JUNCTION     0.76     0.97     6.80     0  02:29        0.97
  WS02004409           JUNCTION     0.44     0.69     6.46     0  02:32        0.69
  WS02004410           JUNCTION     0.46     0.70     6.42     0  02:32        0.70
  WS02004411           JUNCTION     0.48     0.71     6.39     0  02:32        0.71
  WS02004412           JUNCTION     0.50     0.71     6.35     0  02:32        0.71
  WS02004413           JUNCTION     0.66     0.87     6.34     0  02:33        0.87
  WS02004405           JUNCTION     0.75     0.97     6.82     0  02:30        0.97
  WS02006109           JUNCTION     0.70     1.00     7.62     0  02:26        1.00
  WS02006110           JUNCTION     0.70     0.94     7.53     0  02:26        0.94
  WS02006111           JUNCTION     0.20     0.29     7.00     0  02:27        0.29
  WS02006112           JUNCTION     0.78     1.11     7.00     0  02:33        1.08
  WS02006113           JUNCTION     0.30     0.47     7.36     0  02:27        0.47
  WS02006115           JUNCTION     0.51     0.78     6.92     0  02:30        0.78
  WS02006116           JUNCTION     0.60     0.86     6.90     0  02:29        0.86
  WS02006230           JUNCTION     0.64     1.04     7.79     0  02:27        1.04
  WS02006231           JUNCTION     0.43     0.71     7.83     0  02:28        0.71
  WS02006232           JUNCTION     0.56     0.83     7.87     0  02:28        0.83
  WS02006234           JUNCTION     0.46     0.76     7.92     0  02:28        0.76
  WS02006235           JUNCTION     0.49     0.79     7.95     0  02:29        0.79
  WS02006238           JUNCTION     0.52     0.81     7.96     0  02:29        0.81
  WS02006240           JUNCTION     0.43     0.71     8.01     0  02:29        0.71
  WS02006242           JUNCTION     0.50     0.77     8.04     0  02:29        0.77
  WS02006243           JUNCTION     0.38     0.64     8.06     0  02:30        0.64
  WS02006245           JUNCTION     0.38     0.60     8.08     0  02:30        0.60
  WS02006247           JUNCTION     0.40     0.60     8.10     0  02:30        0.60
  WS02006248           JUNCTION     0.35     0.53     8.11     0  02:30        0.53
  WS02006249           JUNCTION     0.39     0.54     8.13     0  02:30        0.54
  WS02006239           JUNCTION     0.48     0.77     7.98     0  02:29        0.77
  WS02006251           JUNCTION     0.38     0.50     8.17     0  02:30        0.50
  WS02006252           JUNCTION     0.32     0.35     8.59     0  02:16        0.35
  WS02006253           JUNCTION     0.40     0.53     8.18     0  02:30        0.53
  WS02006256           JUNCTION     0.80     1.21     8.14     0  02:29        1.21
  WS02004138           JUNCTION     0.17     0.19     7.44     0  02:01        0.19
  WS02004407           JUNCTION     0.20     0.30     6.62     0  02:30        0.30
  WS02006228           JUNCTION     0.69     1.05     7.70     0  02:26        1.04
  WS02006229           JUNCTION     0.66     1.04     7.74     0  02:26        1.04
  WS02006280           JUNCTION     0.06     0.17     8.44     0  02:16        0.17
  WS02006284           JUNCTION     0.35     0.51     8.91     0  02:16        0.51
  WS02006287           JUNCTION     0.09     0.25     9.20     0  02:15        0.25
  WSF200               JUNCTION     0.19     0.31     5.55     0  02:33        0.31
  HS02004901           JUNCTION     0.12     0.26    10.08     0  02:13        0.26
  HS02004881           JUNCTION     0.01     0.03     9.06     0  02:15        0.03
  HS02004876           JUNCTION     0.04     0.11     9.14     0  02:10        0.11
  HS02004870           JUNCTION     0.01     0.05     9.34     0  02:16        0.05
  HS02004862           JUNCTION     0.02     0.06     9.44     0  02:17        0.06
  HS02004856           JUNCTION     0.08     0.11     9.54     0  02:16        0.11
  HS02004852           JUNCTION     0.01     0.03     9.55     0  02:17        0.03
  HS02004848           JUNCTION     0.01     0.03     9.63     0  02:16        0.03
  HS02004842           JUNCTION     0.33     0.36     9.63     0  02:16        0.36
  HS02004837           JUNCTION     0.03     0.05     9.63     0  02:16        0.05
  HS02004830           JUNCTION     0.04     0.07     9.54     0  02:16        0.07
  HS02004824           JUNCTION     0.02     0.05     9.45     0  02:19        0.05
  HS02004817           JUNCTION     0.43     0.55     9.40     0  02:16        0.55
  HS02004807           JUNCTION     0.12     0.23     9.40     0  02:16        0.23
  HS02004802           JUNCTION     0.15     0.26     9.39     0  02:16        0.26
  HS02004799           JUNCTION     0.11     0.30     9.51     0  02:14        0.30
  HS02004792           JUNCTION     0.03     0.12     9.64     0  02:13        0.12
  HS02004788           JUNCTION     0.02     0.09     9.99     0  02:14        0.09
  HS02004785           JUNCTION     0.04     0.16    10.06     0  02:14        0.16
  HS02004777           JUNCTION     0.14     0.28    10.08     0  02:13        0.28
  HS02004770           JUNCTION     0.11     0.25    10.08     0  02:13        0.25
  HS02004480           JUNCTION     0.07     0.23     9.47     0  02:14        0.23
  HS02004479           JUNCTION     0.11     0.27     9.47     0  02:14        0.27
  HS02004478           JUNCTION     0.05     0.15     9.38     0  02:15        0.15
  YS02001745           JUNCTION     0.48     0.74     8.26     0  06:06        0.74
  YS02001748           JUNCTION     0.86     1.19     8.27     0  06:05        1.18
  YS02001751           JUNCTION     1.04     2.05     8.93     0  03:21        1.38
  YS02001754           JUNCTION     1.29     2.00     8.61     0  03:21        1.66
  YS02001762           JUNCTION     1.49     1.89     8.29     0  05:45        1.89
  YS02001765           JUNCTION     1.44     1.85     8.30     0  05:55        1.83
  YS02001767           JUNCTION     1.40     1.82     8.31     0  03:19        1.80
  YS02001770           JUNCTION     1.40     1.95     8.44     0  03:21        1.80
  YS02001774           JUNCTION     1.47     2.02     8.45     0  03:21        1.87
  YS02001779           JUNCTION     1.22     1.68     8.37     0  03:15        1.60
  YS02001882           JUNCTION     0.33     0.56     7.28     0  02:50        0.56
  YS02001884           JUNCTION     0.42     0.66     7.27     0  02:51        0.66
  YS02001759           JUNCTION     1.52     1.92     8.29     0  05:48        1.92
  YS02001887           JUNCTION     0.50     0.74     7.27     0  02:50        0.74
  YS02001890           JUNCTION     0.53     0.77     7.27     0  02:51        0.77
  YS02001898           JUNCTION     0.30     0.52     7.26     0  02:52        0.52
  YS02001901           JUNCTION     0.42     0.65     7.26     0  02:52        0.65
  YS02001904           JUNCTION     0.40     0.62     7.25     0  02:52        0.62
  YS02001907           JUNCTION     0.73     0.97     7.26     0  02:53        0.96
  YS02001910           JUNCTION     0.51     0.75     7.26     0  02:54        0.75
  YS02001915           JUNCTION     0.32     0.54     7.25     0  02:52        0.54
  YS02001918           JUNCTION     0.10     0.19     7.25     0  02:51        0.19
  YS02001619           JUNCTION     1.00     1.51     8.44     0  04:16        1.41
  YS02001629           JUNCTION     1.35     1.84     8.39     0  04:16        1.78
  YS02001641           JUNCTION     1.46     1.88     8.32     0  06:01        1.87
  YS02001644           JUNCTION     1.46     1.88     8.31     0  05:41        1.87
  YS02001652           JUNCTION     1.30     1.95     8.54     0  03:31        1.69
  YS02001655           JUNCTION     1.07     1.99     8.84     0  03:31        1.45
  YS02001920           JUNCTION     0.20     0.26     7.27     0  02:52        0.26
  YS02001923           JUNCTION     0.07     0.10     7.36     0  03:01        0.10
  YS02001926           JUNCTION     0.16     0.20     7.65     0  03:01        0.20
  YS02001929           JUNCTION     0.08     0.10     7.80     0  03:01        0.10
  YS02001658           JUNCTION     0.80     1.19     8.34     0  04:28        1.16
  YS02001661           JUNCTION     0.58     0.90     8.30     0  05:36        0.90
  YS02001664           JUNCTION     0.20     0.40     8.33     0  05:37        0.40
  YS02001622           JUNCTION     1.02     1.52     8.42     0  04:16        1.43
  YS02001633           JUNCTION     1.44     1.90     8.36     0  04:16        1.87
  YS02001649           JUNCTION     1.50     1.90     8.29     0  05:57        1.89
  YS02001757           JUNCTION     1.62     2.02     8.29     0  05:29        2.01
  YS02001895           JUNCTION     0.29     0.52     7.26     0  02:51        0.52
  YS02001625           JUNCTION     1.30     1.78     8.38     0  04:16        1.74
  YS02163301           JUNCTION     1.38     1.86     8.38     0  04:16        1.82
  YS02163601           JUNCTION     1.50     1.93     8.33     0  06:01        1.92
  YS02164001           JUNCTION     1.44     1.87     8.32     0  06:01        1.86
  YS02001647           JUNCTION     1.29     1.69     8.30     0  05:57        1.68
  YSB1154              JUNCTION     0.25     0.42     9.48     0  02:14        0.42
  YSB6556              JUNCTION     0.14     0.31     9.48     0  02:14        0.31
  YSB1174              JUNCTION     0.20     0.37     9.48     0  02:14        0.37
  YSB1171              JUNCTION     0.40     0.57     9.48     0  02:14        0.57
  YS02006553           JUNCTION     0.73     0.97     7.25     0  02:55        0.97
  YS02006561           JUNCTION     0.16     0.29     6.95     0  02:53        0.28
  YS02006556           JUNCTION     0.70     0.94     7.25     0  02:52        0.93
  YS02006558           JUNCTION     0.74     0.98     7.25     0  02:52        0.98
  YS02001783           JUNCTION     0.44     0.65     6.79     0  03:39        0.63
  YS02001784           JUNCTION     0.50     0.72     6.78     0  03:38        0.67
  YS02001786           JUNCTION     0.50     0.72     6.75     0  03:39        0.68
  YS02001788           JUNCTION     0.50     0.76     6.73     0  03:39        0.74
  YS02001790           JUNCTION     0.74     1.96     7.60     0  03:36        1.04
  YS02001791           JUNCTION     0.82     2.20     7.67     0  03:35        1.18
  YS02001793           JUNCTION     1.22     2.53     7.36     0  03:33        1.78
  WS02004139           JUNCTION     0.65     0.74     5.65     0  02:38        0.74
  WSC                  OUTFALL      0.30     0.40     1.07     0  02:37        0.40
  3                    OUTFALL      0.04     0.21     6.21     0  02:29        0.21
  4                    OUTFALL      0.00     0.04     7.04     0  02:30        0.04
  5                    OUTFALL      0.00     0.00     5.00     0  00:00        0.00
  JK-storage           STORAGE      4.14     5.80     6.60     0  03:37        5.80
  CC-storage           STORAGE      0.85     1.24     8.24     0  06:01        1.24
  XR-storage           STORAGE      4.73     5.61     3.61     0  04:46        5.61
  
  
  *******************
  Node Inflow Summary
  *******************
  
  -------------------------------------------------------------------------------------------------
                                  Maximum  Maximum                  Lateral       Total        Flow
                                  Lateral    Total  Time of Max      Inflow      Inflow     Balance
                                   Inflow   Inflow   Occurrence      Volume      Volume       Error
  Node                 Type           LPS      LPS  days hr:min    10^6 ltr    10^6 ltr     Percent
  -------------------------------------------------------------------------------------------------
  WS02001211           JUNCTION      7.35   388.14     0  02:48       0.207        8.01       0.459
  WS02001212           JUNCTION      0.00   388.67     0  02:48           0        7.97       0.255
  WS02001213           JUNCTION      0.00   389.08     0  02:48           0        7.95       0.275
  WS02003069           JUNCTION      0.32   965.39     0  02:36     0.00902        14.1       0.195
  WS02003072           JUNCTION      0.00   965.35     0  02:36           0        14.1       0.242
  WS02003073           JUNCTION      1.82   967.19     0  02:37      0.0514        14.1       0.269
  WS02003060           JUNCTION     16.53   965.12     0  02:35       0.466        14.2       0.185
  WS02003066           JUNCTION      0.00   565.34     0  02:33           0         5.8       0.065
  WS02003059           JUNCTION      0.00   389.85     0  02:47           0        7.94       0.476
  WS02003067           JUNCTION      0.00   565.29     0  02:33           0        5.81       0.141
  WS02004401           JUNCTION      0.00   568.27     0  02:28           0        6.01       0.315
  WS02004402           JUNCTION      0.00   567.75     0  02:29           0        5.99       0.301
  WS02004403           JUNCTION      0.00   567.62     0  02:30           0        5.97       0.277
  WS02004404           JUNCTION      0.16   567.43     0  02:30     0.00457        5.96       0.213
  WS02004406           JUNCTION      0.00   567.64     0  02:30           0        5.93       0.520
  WS02004409           JUNCTION      0.00   567.17     0  02:30           0         5.9       0.224
  WS02004410           JUNCTION      0.00   566.28     0  02:32           0        5.88       0.258
  WS02004411           JUNCTION      0.00   565.82     0  02:32           0        5.87       0.270
  WS02004412           JUNCTION      0.00   565.52     0  02:32           0        5.85       0.298
  WS02004413           JUNCTION      0.00   565.40     0  02:33           0        5.83       0.453
  WS02004405           JUNCTION      0.04   567.35     0  02:29     0.00107        5.95       0.318
  WS02006109           JUNCTION      1.23   562.38     0  02:27      0.0347        6.09       0.340
  WS02006110           JUNCTION      0.00   562.37     0  02:27           0        6.07       0.292
  WS02006111           JUNCTION      0.00   586.88     0  02:27           0        6.04       0.062
  WS02006112           JUNCTION     12.43   574.92     0  02:27      0.0341        6.07       0.444
  WS02006113           JUNCTION      0.00   562.95     0  02:26           0        6.05       0.129
  WS02006115           JUNCTION      0.00   575.60     0  02:27           0        6.04       0.278
  WS02006116           JUNCTION      0.00   570.00     0  02:27           0        6.03       0.269
  WS02006230           JUNCTION     10.28   349.75     0  02:57        0.29        4.98       0.269
  WS02006231           JUNCTION      0.00   338.71     0  02:57           0        4.69       0.147
  WS02006232           JUNCTION      0.00   338.67     0  02:57           0        4.71       0.307
  WS02006234           JUNCTION      0.00   338.13     0  02:57           0        4.71       0.123
  WS02006235           JUNCTION      0.00   337.85     0  02:57           0        4.76       0.204
  WS02006238           JUNCTION      0.00   265.28     0  03:10           0        4.19       0.153
  WS02006240           JUNCTION      0.00   245.24     0  03:11           0        4.17       0.239
  WS02006242           JUNCTION      0.00   239.12     0  02:41           0        4.18       0.309
  WS02006243           JUNCTION      0.00   239.37     0  02:20           0        4.17       0.162
  WS02006245           JUNCTION      0.00   244.98     0  02:20           0        4.18       0.189
  WS02006247           JUNCTION      0.00   248.22     0  02:21           0        4.19       0.157
  WS02006248           JUNCTION      0.00   250.43     0  02:21           0        4.19       0.109
  WS02006249           JUNCTION      0.00   252.60     0  02:19           0        4.21       0.223
  WS02006239           JUNCTION      0.00   254.83     0  03:10           0        4.18       0.228
  WS02006251           JUNCTION      0.08   254.64     0  02:19     0.00217        4.22       0.208
  WS02006252           JUNCTION      0.00   200.00     0  03:00           0        4.03       0.011
  WS02006253           JUNCTION      1.87    56.82     0  02:15     0.00441       0.194       1.843
  WS02006256           JUNCTION      0.00   600.00     0  02:19           0        2.46       0.111
  WS02004138           JUNCTION      0.00   380.00     0  02:00           0        7.84       0.059
  WS02004407           JUNCTION      0.00   567.26     0  02:30           0         5.9       0.103
  WS02006228           JUNCTION      0.00   561.15     0  02:27           0        6.07       0.222
  WS02006229           JUNCTION      0.00   561.15     0  02:26           0        6.08       0.200
  WS02006280           JUNCTION      0.00   283.61     0  02:16           0        1.11       0.006
  WS02006284           JUNCTION      0.10   283.59     0  02:16      0.0027        1.12       0.100
  WS02006287           JUNCTION      0.00   283.46     0  02:15           0        1.11       0.065
  WSF200               JUNCTION      0.00   565.36     0  02:33           0         5.8       0.059
  HS02004901           JUNCTION     15.34    15.34     0  02:09       0.041      0.0412       4.460
  HS02004881           JUNCTION      6.25    55.33     0  02:15      0.0179        0.19       0.207
  HS02004876           JUNCTION     10.07    49.33     0  02:16      0.0344       0.173       0.309
  HS02004870           JUNCTION     11.07    39.43     0  02:15      0.0339       0.139       0.077
  HS02004862           JUNCTION      9.16    29.04     0  02:16      0.0396       0.105       0.163
  HS02004856           JUNCTION      8.21    19.93     0  02:15      0.0255      0.0668       2.204
  HS02004852           JUNCTION      0.00    12.20     0  02:16           0      0.0413       0.127
  HS02004848           JUNCTION     18.60    18.60     0  02:19      0.0812      0.0812       0.054
  HS02004842           JUNCTION      0.00     7.06     0  02:28           0      0.0529      32.608
  HS02004837           JUNCTION     24.19    30.02     0  02:15       0.238       0.278       0.293
  HS02004830           JUNCTION      0.15    30.15     0  02:16     0.00423       0.268       0.462
  HS02004824           JUNCTION     21.07    50.96     0  02:19       0.106       0.373       0.144
  HS02004817           JUNCTION      0.60    51.55     0  02:19      0.0169        0.39       4.468
  HS02004807           JUNCTION     20.80    70.59     0  02:17      0.0623       0.435       0.980
  HS02004802           JUNCTION      0.00    71.07     0  02:18           0       0.431       0.950
  HS02004799           JUNCTION     16.06   181.62     0  02:13      0.0505       0.596       0.385
  HS02004792           JUNCTION     71.34   165.79     0  02:13       0.218       0.546       0.074
  HS02004788           JUNCTION     23.50    96.41     0  02:13       0.117       0.329       0.119
  HS02004785           JUNCTION      0.15    73.20     0  02:13     0.00423       0.214       0.227
  HS02004777           JUNCTION      0.03    73.51     0  02:12    0.000846       0.214       2.481
  HS02004770           JUNCTION     60.47    74.61     0  02:10       0.175       0.215       1.462
  HS02004480           JUNCTION      0.00   214.30     0  02:14           0       0.698       0.109
  HS02004479           JUNCTION      0.00    33.35     0  02:15           0       0.115       0.639
  HS02004478           JUNCTION      0.00   283.45     0  02:15           0        1.11       0.054
  YS02001745           JUNCTION    112.07   199.80     0  04:14        1.14        1.19       0.744
  YS02001748           JUNCTION      0.04   449.15     0  03:13     0.00127        1.26       1.820
  YS02001751           JUNCTION      0.01   458.85     0  03:16     0.00031         1.2       1.735
  YS02001754           JUNCTION      0.26   201.75     0  03:15     0.00733         1.1       2.151
  YS02001762           JUNCTION      0.00   164.75     0  03:00           0        1.25       1.694
  YS02001765           JUNCTION      0.00   164.60     0  03:00           0        1.25       1.960
  YS02001767           JUNCTION      0.54   164.38     0  03:00      0.0151        1.27       2.854
  YS02001770           JUNCTION    142.64   180.18     0  02:37        1.32        1.35       2.380
  YS02001774           JUNCTION      0.00    63.78     0  03:16           0      0.0949      36.346
  YS02001779           JUNCTION      0.01    63.31     0  03:16    0.000141      0.0416      56.363
  YS02001882           JUNCTION      0.00     5.20     0  02:07           0     0.00722      33.869
  YS02001884           JUNCTION      0.00    14.87     0  02:09           0      0.0279      22.897
  YS02001759           JUNCTION    138.99   302.76     0  02:39        1.23        2.44       0.940
  YS02001887           JUNCTION    181.43   183.50     0  02:42        1.45        1.46       0.516
  YS02001890           JUNCTION      0.00   183.14     0  02:42           0        1.43       0.576
  YS02001898           JUNCTION      0.00   181.85     0  02:41           0        1.42       0.175
  YS02001901           JUNCTION      0.00   182.00     0  02:45           0        1.42       0.414
  YS02001904           JUNCTION      0.00   182.65     0  02:45           0        1.42       0.385
  YS02001907           JUNCTION      0.00   343.99     0  02:53           0        3.07       0.743
  YS02001910           JUNCTION      0.00   157.48     0  03:01           0        1.66       0.642
  YS02001915           JUNCTION     99.89   154.01     0  03:01       0.973        1.66       0.299
  YS02001918           JUNCTION      0.00    52.25     0  03:01           0        0.69       0.194
  YS02001619           JUNCTION     97.28    97.28     0  02:57       0.962       0.962       1.278
  YS02001629           JUNCTION      0.00   206.50     0  03:28           0        0.89       3.313
  YS02001641           JUNCTION      0.00   223.00     0  03:03           0        1.92       1.104
  YS02001644           JUNCTION    106.58   328.89     0  03:01         1.1        2.98       0.877
  YS02001652           JUNCTION      0.00   235.78     0  03:04           0        1.02       2.106
  YS02001655           JUNCTION      0.15   453.60     0  03:00     0.00434        1.09       1.867
  YS02001920           JUNCTION      2.87    51.11     0  03:01      0.0809       0.693       0.332
  YS02001923           JUNCTION      0.04    48.24     0  03:01     0.00106       0.612       0.059
  YS02001926           JUNCTION      0.05    48.28     0  03:01     0.00147       0.613       0.413
  YS02001929           JUNCTION     48.25    48.25     0  03:01       0.612       0.612       0.058
  YS02001658           JUNCTION      0.00   421.06     0  03:01           0        1.21       1.271
  YS02001661           JUNCTION      0.00   273.38     0  03:55           0        1.51       1.045
  YS02001664           JUNCTION    129.10   195.30     0  05:10        1.07         1.4       0.220
  YS02001622           JUNCTION      0.00   142.28     0  03:26           0       0.956       3.425
  YS02001633           JUNCTION    108.41   225.25     0  03:01        1.13        1.97       1.631
  YS02001649           JUNCTION      0.00   539.79     0  03:04           0        3.91       0.949
  YS02001757           JUNCTION      0.00   827.58     0  03:01           0        7.33       1.274
  YS02001895           JUNCTION      0.00   182.38     0  02:42           0        1.42       0.284
  YS02001625           JUNCTION      0.00   207.42     0  03:28           0       0.931       4.385
  YS02163301           JUNCTION      0.00   121.41     0  02:33           0       0.868       2.826
  YS02163601           JUNCTION      0.11   224.58     0  03:01      0.0031        1.93       1.574
  YS02164001           JUNCTION      0.00   224.30     0  03:01           0        1.91       1.036
  YS02001647           JUNCTION      0.00   327.83     0  03:01           0        2.94       0.900
  YSB1154              JUNCTION     17.91    17.91     0  02:13      0.0612      0.0625       2.365
  YSB6556              JUNCTION      0.00    17.93     0  02:15           0      0.0634       2.007
  YSB1174              JUNCTION     17.39    17.39     0  02:08      0.0445      0.0454       2.907
  YSB1171              JUNCTION      0.00    33.25     0  02:14           0       0.114       5.851
  YS02006553           JUNCTION      0.00   341.59     0  03:01           0        3.05       0.481
  YS02006561           JUNCTION      0.00   525.25     0  02:52           0        4.32       0.008
  YS02006556           JUNCTION      0.00   342.09     0  02:53           0        3.06       0.348
  YS02006558           JUNCTION    154.06   498.63     0  02:52        1.32        4.35       0.114
  YS02001783           JUNCTION      0.00   490.80     0  02:53           0        4.32       0.167
  YS02001784           JUNCTION      1.06   489.49     0  02:53      0.0299        4.34       0.244
  YS02001786           JUNCTION      0.06   487.31     0  02:53     0.00159        4.33       0.313
  YS02001788           JUNCTION      0.07   486.90     0  02:53       0.002        4.32       0.319
  YS02001790           JUNCTION      0.15   486.85     0  02:54     0.00437        4.31       0.396
  YS02001791           JUNCTION      0.00   486.52     0  02:54           0         4.3       0.338
  YS02001793           JUNCTION      0.00   486.56     0  02:54           0        4.28       0.376
  WS02004139           JUNCTION      0.32   380.32     0  02:04     0.00905        7.84       0.479
  WSC                  OUTFALL       0.00   967.24     0  02:37           0        14.1       0.000
  3                    OUTFALL       0.00   513.58     0  02:29           0        1.86       0.000
  4                    OUTFALL       0.00    13.14     0  02:30           0     0.00811       0.000
  5                    OUTFALL       0.00     0.00     0  00:00           0           0       0.000 ltr
  JK-storage           STORAGE       0.00   614.25     0  03:33           0        4.42     -10.350
  CC-storage           STORAGE       0.00   827.47     0  02:57           0        7.24       0.820
  XR-storage           STORAGE     380.78   380.78     0  02:55        7.57        8.17      -0.000
  
  
  **********************
  Node Surcharge Summary
  **********************
  
  Surcharging occurs when water rises above the top of the highest conduit.
  ---------------------------------------------------------------------
                                               Max. Height   Min. Depth
                                   Hours       Above Crown    Below Rim
  Node                 Type      Surcharged         Meters       Meters
  ---------------------------------------------------------------------
  WS02006109           JUNCTION        1.10          0.177        1.643
  WS02006110           JUNCTION        0.35          0.031        1.819
  WS02006112           JUNCTION        0.58          0.114        1.566
  WS02006232           JUNCTION        0.80          0.132        1.348
  WS02006234           JUNCTION        0.34          0.043        1.197
  WS02006235           JUNCTION        0.56          0.079        1.211
  WS02006238           JUNCTION        0.65          0.094        1.336
  WS02006240           JUNCTION        0.06          0.004        1.386
  WS02006242           JUNCTION        0.30          0.037        0.783
  WS02006239           JUNCTION        0.31          0.034        1.256
  WS02006228           JUNCTION        0.99          0.215        1.985
  YS02001748           JUNCTION        2.89          0.110        1.080
  YS02001751           JUNCTION        4.17          1.048        0.152
  YS02001754           JUNCTION        4.79          0.955        0.195
  YS02001762           JUNCTION        5.39          0.891        0.259
  YS02001765           JUNCTION        5.37          0.848        0.252
  YS02001767           JUNCTION        5.34          0.819        0.211
  YS02001770           JUNCTION        5.30          0.920        0.000
  YS02001774           JUNCTION        5.39          1.024        0.026
  YS02001779           JUNCTION        4.64          0.680        0.000
  YS02001759           JUNCTION        5.43          0.924        0.286
  YS02001619           JUNCTION        4.01          0.507        0.103
  YS02001629           JUNCTION        4.03          0.462        0.008
  YS02001641           JUNCTION        5.38          0.882        0.218
  YS02001644           JUNCTION        5.38          0.881        0.039
  YS02001652           JUNCTION        5.00          0.916        0.214
  YS02001655           JUNCTION        4.27          0.989        0.211
  YS02001658           JUNCTION        2.93          0.194        1.106
  YS02001622           JUNCTION        4.12          0.520        0.100
  YS02001633           JUNCTION        5.36          0.884        0.176
  YS02001649           JUNCTION        5.41          0.903        0.147
  YS02001757           JUNCTION        5.49          1.024        0.186
  YS02001625           JUNCTION        5.17          0.780        0.000
  YS02163301           JUNCTION        5.33          0.860        0.170
  YS02163601           JUNCTION        5.40          0.932        0.148
  YS02164001           JUNCTION        5.37          0.866        0.234
  YS02001647           JUNCTION        5.13          0.692        0.208
  YS02001790           JUNCTION        4.22          1.157        0.000
  YS02001791           JUNCTION        4.24          1.395        0.525
  YS02001793           JUNCTION        4.27          1.526        1.074
  
  
  *********************
  Node Flooding Summary
  *********************
  
  Flooding refers to all water that overflows a node, whether it ponds or not.
  --------------------------------------------------------------------------
                                                             Total   Maximum
                                 Maximum   Time of Max       Flood    Ponded
                        Hours       Rate    Occurrence      Volume     Depth
  Node                 Flooded       LPS   days hr:min    10^6 ltr    Meters
  --------------------------------------------------------------------------
  YS02001770              0.01      9.72      0  03:21       0.000     0.000
  YS02001779              0.01     37.82      0  03:20       0.000     0.000
  YS02001625              0.01      8.56      0  04:16       0.000     0.000
  YS02001790              0.01    216.87      0  03:36       0.000     0.000
  JK-storage              4.21    384.37      0  03:40       2.176     0.000
  
  
  **********************
  Storage Volume Summary
  **********************
  
  --------------------------------------------------------------------------------------------------
                         Average     Avg  Evap Exfil       Maximum     Max    Time of Max    Maximum
                          Volume    Pcnt  Pcnt  Pcnt        Volume    Pcnt     Occurrence    Outflow
  Storage Unit           1000 m3    Full  Loss  Loss       1000 m3    Full    days hr:min        LPS
  --------------------------------------------------------------------------------------------------
  JK-storage               0.208      71     0     0         0.291     100       0  03:37     600.00
  CC-storage               2.381      15     0     0         3.460      22       0  06:01     200.00
  XR-storage               0.568      61     0     0         0.674      73       0  04:46     380.00
  
  
  ***********************
  Outfall Loading Summary
  ***********************
  
  -----------------------------------------------------------
                         Flow       Avg       Max       Total
                         Freq      Flow      Flow      Volume
  Outfall Node           Pcnt       LPS       LPS    10^6 ltr
  -----------------------------------------------------------
  WSC                   99.99    588.02    967.24      14.088
  3                     26.16    377.37    513.58       1.860
  4                      7.41      6.07     13.14       0.008
  5                      0.00      0.00      0.00       0.000
  -----------------------------------------------------------
  System                33.39    971.46   1484.00      15.956
  
  
  ********************
  Link Flow Summary
  ********************
  
  -----------------------------------------------------------------------------
                                 Maximum  Time of Max   Maximum    Max/    Max/
                                  |Flow|   Occurrence   |Veloc|    Full    Full
  Link                 Type          LPS  days hr:min     m/sec    Flow   Depth
  -----------------------------------------------------------------------------
  WS02003066WSF200     CONDUIT    565.36     0  02:33      2.78    0.10    0.24
  WS02006287WS02006284 CONDUIT    283.49     0  02:16      1.80    0.13    0.25
  WS02006284WS02006280 CONDUIT    283.61     0  02:16      2.04    0.12    0.23
  WS02006280WS02006229 CONDUIT    283.61     0  02:16      3.29    0.06    0.17
  WS02006229WS02006228 CONDUIT    561.15     0  02:27      1.12    1.86    1.00
  WS02006256WS02006235 CONDUIT    166.25     0  00:01      2.58    1.76    1.00
  WS02006253WS02006251 CONDUIT     55.92     0  02:13      0.55    0.17    0.73
  WS02006252WS02006251 CONDUIT    200.86     0  02:16      1.97    0.74    0.76
  WS02006251WS02006249 CONDUIT    252.60     0  02:19      1.00    0.73    0.74
  WS02006249WS02006248 CONDUIT    250.43     0  02:21      1.09    1.37    0.74
  WS02006248WS02006247 CONDUIT    248.22     0  02:21      1.05    0.54    0.80
  WS02006247WS02006245 CONDUIT    244.98     0  02:20      1.00    1.94    0.85
  WS02006245WS02006243 CONDUIT    239.37     0  02:20      1.02    0.71    0.88
  WS02006243WS02006242 CONDUIT    239.12     0  02:41      0.85    0.51    0.96
  WS02006242WS02006240 CONDUIT    245.24     0  03:11      0.78    0.97    1.00
  WS02006240WS02006239 CONDUIT    254.83     0  03:10      0.86    0.80    1.00
  WS02006239WS02006238 CONDUIT    265.28     0  03:10      0.78    0.85    1.00
  WS02006238WS02006235 CONDUIT    269.99     0  03:10      1.25    0.60    1.00
  WS02006235WS02006234 CONDUIT    338.13     0  02:57      0.93    3.57    1.00
  WS02006234WS02006232 CONDUIT    338.67     0  02:57      1.13    0.69    1.00
  WS02006232WS02006231 CONDUIT    338.71     0  02:57      0.92    0.71    1.00
  WS02006231WS02006230 CONDUIT    339.47     0  02:57      1.20    5.15    0.97
  WS02006230WS02006229 CONDUIT    350.77     0  02:57      0.91    7.81    1.00
  WS02006228WS02006109 CONDUIT    561.15     0  02:27      1.12    2.45    1.00
  WS02006116WS02004401 CONDUIT    568.27     0  02:28      0.79    0.78    0.87
  WS02006115WS02006116 CONDUIT    570.00     0  02:27      0.88    0.73    0.79
  WS02006113WS02006111 CONDUIT    586.88     0  02:27      2.50    0.70    0.47
  WS02006112WS02006115 CONDUIT    575.60     0  02:27      0.79    0.34    0.88
  WS02006111WS02006112 CONDUIT    567.01     0  02:27      1.56    0.27    0.68
  WS02006110WS02006113 CONDUIT    562.95     0  02:26      1.32    0.51    0.79
  WS02006109WS02006110 CONDUIT    562.37     0  02:27      1.12    1.08    1.00
  WS02004411WS02004412 CONDUIT    565.52     0  02:32      0.95    0.80    0.71
  WS02004401WS02004402 CONDUIT    567.75     0  02:29      0.77    0.68    0.89
  WS02004413WS02003067 CONDUIT    565.29     0  02:33      1.14    0.24    0.60
  WS02004412WS02004413 CONDUIT    565.40     0  02:33      0.85    0.38    0.79
  WS02004410WS02004411 CONDUIT    565.82     0  02:32      0.96    0.77    0.70
  WS02004409WS02004410 CONDUIT    566.28     0  02:32      0.98    0.73    0.69
  WS02004407WS02004409 CONDUIT    567.17     0  02:30      1.49    0.20    0.50
  WS02004406WS02004407 CONDUIT    567.26     0  02:30      1.07    0.25    0.64
  WS02004405WS02004406 CONDUIT    567.64     0  02:30      0.73    1.12    0.97
  WS02004404WS02004405 CONDUIT    567.31     0  02:29      0.84    5.56    0.98
  WS02004403WS02004404 CONDUIT    567.27     0  02:30      0.74    0.41    0.95
  WS02004402WS02004403 CONDUIT    567.62     0  02:30      0.76    0.82    0.91
  WS02004139WS02001211 CONDUIT    380.79     0  02:48      0.69    0.48    0.60
  WS02004138WS02004139 CONDUIT    380.00     0  02:04      2.94    0.08    0.44
  WS02003067WS02003066 CONDUIT    565.34     0  02:33      1.24    0.18    0.42
  WS02001213WS02003059 CONDUIT    389.85     0  02:47      0.68    0.64    0.78
  WS02001212WS02001213 CONDUIT    389.08     0  02:48      1.32    0.60    0.48
  WS02001211WS02001212 CONDUIT    388.67     0  02:48      0.78    0.30    0.65
  WS02003072WS02003073 CONDUIT    965.37     0  02:37      1.74    2.09    0.49
  WS02003069WS02003072 CONDUIT    965.35     0  02:36      1.64    0.46    0.52
  WS02003060WS02003069 CONDUIT    965.07     0  02:36      1.88    0.38    0.46
  WS02003059WS02003060 CONDUIT    390.89     0  02:47      0.93    0.26    0.67
  HS02004901HS02004770 CONDUIT     14.45     0  02:12      0.06    0.05    0.36
  HS02004876HS02004881 CONDUIT     49.55     0  02:15      0.73    0.53    0.10
  HS02004870HS02004876 CONDUIT     39.41     0  02:16      0.50    0.03    0.11
  HS02004842HS02004848 CONDUIT      7.06     0  02:28      0.04    0.00    0.28
  HS02004837HS02004842 CONDUIT      7.30     0  02:29      0.41    0.00    0.30
  HS02004830HS02004837 CONDUIT     30.00     0  02:16      0.49    0.03    0.09
  HS02004824HS02004830 CONDUIT     30.15     0  02:17      0.53    0.04    0.08
  HS02004817HS02004824 CONDUIT     50.95     0  02:19      0.17    0.02    0.43
  HS02004770HS02004777 CONDUIT     73.48     0  02:12      0.28    0.13    0.38
  HS02004799HS02004480 CONDUIT    181.36     0  02:14      0.70    0.23    0.37
  HS02004792HS02004799 CONDUIT    165.70     0  02:13      0.80    0.10    0.30
  HS02004788HS02004792 CONDUIT     96.33     0  02:14      0.94    0.06    0.15
  HS02004785HS02004788 CONDUIT     73.11     0  02:14      0.60    0.55    0.17
  HS02004777HS02004785 CONDUIT     73.05     0  02:13      0.34    0.09    0.31
  HS02004480HS02004478 CONDUIT    214.29     0  02:14      1.10    0.90    0.28
  HS02004479HS02004480 CONDUIT     33.64     0  02:16      0.16    0.03    0.36
  HS02004862HS02004870 CONDUIT     29.00     0  02:17      0.54    0.03    0.08
  HS02004848HS02004852 CONDUIT     12.20     0  02:16      0.36    0.01    0.05
  HS02004856HS02004862 CONDUIT     19.90     0  02:16      0.40    0.02    0.07
  HS02004852HS02004856 CONDUIT     12.17     0  02:17      0.17    0.01    0.10
  HS02004802HS02004478 CONDUIT     71.63     0  02:19      0.35    0.06    0.30
  HS02004478WS02006287 CONDUIT    283.46     0  02:15      1.50    0.08    0.21
  HS02004817HS02004807 CONDUIT     52.37     0  02:21      0.14    0.03    0.56
  HS02004807HS02004802 CONDUIT     71.07     0  02:18      0.30    0.14    0.34
  YS02001759YS02001757 CONDUIT    302.95     0  02:39      0.39    0.22    1.00
  YS02001762YS02001759 CONDUIT    165.13     0  02:39      0.21    0.19    1.00
  YS02001765YS02001762 CONDUIT    164.75     0  03:00      0.23    0.15    1.00
  YS02001770YS02001767 CONDUIT    163.85     0  03:00      0.31    0.65    1.00
  YS02001774YS02001770 CONDUIT     63.78     0  03:16      0.14    0.04    1.00
  YS02001779YS02001774 CONDUIT     63.30     0  03:16      0.08    0.03    1.00
  YS02001649YS02001757 CONDUIT    539.87     0  03:04      0.69    0.33    1.00
  YS02001767YS02001765 CONDUIT    164.60     0  03:00      0.26    0.21    1.00
  YS02006561YS02001783 CONDUIT    490.80     0  02:53      1.99    0.25    0.54
  YS02001783YS02001784 CONDUIT    488.43     0  02:53      1.43    0.67    0.82
  YS02001784YS02001785 CONDUIT    487.25     0  02:53      1.53    1.13    0.89
  YS02001788YS02001790 CONDUIT    486.69     0  02:54      2.08    0.36    0.97
  YS02001790YS02001791 CONDUIT    486.52     0  02:54      2.43    0.53    1.00
  YS02001791YS02001793 CONDUIT    486.56     0  02:54      4.98    0.21    1.00
  YS02001910YS02001907 CONDUIT    161.65     0  03:02      0.49    0.09    0.85
  YS02001786YS02001788 CONDUIT    486.83     0  02:53      1.98    0.94    0.91
  YS02001915YS02001910 CONDUIT    157.48     0  03:01      0.45    0.08    0.64
  YS02001918YS02001915 CONDUIT     54.88     0  03:04      0.44    0.03    0.36
  YS02001923YS02001920 CONDUIT     48.24     0  03:01      0.53    0.02    0.18
  YS02001926YS02001923 CONDUIT     48.20     0  03:01      0.58    0.07    0.16
  YS02001929YS02001926 CONDUIT     48.23     0  03:01      0.63    0.02    0.15
  YS02001920YS02001918 CONDUIT     52.25     0  03:01      0.53    0.05    0.22
  YS02001629YS02163301 CONDUIT    121.41     0  02:33      0.15    0.15    1.00
  YS02001619YS02001622 CONDUIT    142.28     0  03:26      0.71    0.21    1.00
  YS02001622YS02001625 CONDUIT    207.42     0  03:28      0.30    0.11    1.00
  YS02001625YS02001629 CONDUIT    206.50     0  03:28      0.28    0.10    1.00
  YS02163301YS02001633 CONDUIT    118.42     0  03:03      0.15    0.11    1.00
  YS02163601YS02164001 CONDUIT    224.30     0  03:01      0.29    0.20    1.00
  YS02164001YS02001641 CONDUIT    223.00     0  03:03      0.28    0.30    1.00
  YS02001641YS02001644 CONDUIT    222.88     0  03:01      0.28    0.72    1.00
  YS02001647YS02001649 CONDUIT    333.83     0  02:44      0.43    0.18    1.00
  YS02006553YS02006556 CONDUIT    342.09     0  02:53      0.45    0.29    0.93
  YS02006556YS02006558 CONDUIT    345.99     0  02:52      0.45    0.27    0.96
  YSB6556YSB1171       CONDUIT     18.25     0  02:17      0.07    0.02    0.63
  YS02001907YS02006553 CONDUIT    341.59     0  03:01      0.38    0.40    1.00
  YS02006558YS02006561 CONDUIT    525.25     0  02:52      2.78    1.16    0.63
  YS02001633YS02163601 CONDUIT    224.47     0  03:01      0.29    0.24    1.00
  YS02001644YS02001647 CONDUIT    327.83     0  03:01      0.42    0.19    1.00
  YS02001745YS02001748 CONDUIT    257.48     0  04:15      1.53    0.10    0.87
  YS02001748YS02001751 CONDUIT    458.84     0  03:16      1.18    0.23    1.00
  YS02001751YS02001754 CONDUIT    201.49     0  03:15      1.02    0.10    1.00
  YS02001754YS02001757 CONDUIT    210.11     0  03:08      0.33    0.08    1.00
  YS02001882YS02001884 CONDUIT      5.20     0  02:07      0.06    0.01    0.58
  YS02001884YS02001887 CONDUIT     14.87     0  02:09      0.06    0.02    0.67
  YS02001890YS02001895 CONDUIT    182.38     0  02:42      0.35    0.08    0.64
  YS02001895YS02001898 CONDUIT    181.85     0  02:41      0.50    0.32    0.50
  YS02001898YS02001901 CONDUIT    182.00     0  02:45      0.39    0.12    0.58
  YS02001901YS02001904 CONDUIT    182.65     0  02:45      0.35    0.28    0.63
  YS02001904YS02001907 CONDUIT    185.78     0  02:53      0.28    0.07    0.79
  YS02001887YS02001890 CONDUIT    183.14     0  02:42      0.30    0.31    0.73
  YS02001652YS02001649 CONDUIT    236.79     0  03:04      0.34    0.12    1.00
  YS02001655YS02001652 CONDUIT    235.78     0  03:04      1.09    0.11    1.00
  YS02001658YS02001655 CONDUIT    453.44     0  03:00      1.37    0.19    1.00
  YS02001661YS02001658 CONDUIT    335.19     0  03:25      1.59    0.13    0.91
  YS02001664YS02001661 CONDUIT    222.37     0  05:06      1.34    0.07    0.60
  YSB1154YSB6556       CONDUIT     17.93     0  02:15      0.19    0.03    0.52
  YSB1174YSB1171       CONDUIT     16.14     0  02:09      0.07    0.02    0.64
  YSB1171HS02004479    CONDUIT     33.35     0  02:15      0.54    0.02    0.50
  HS02004881HS02006253 CONDUIT     55.34     0  02:15      1.91    0.01    0.15
  YS02001793JiankangQianchi CONDUIT    614.25     0  03:33     15.04    0.05    1.00
  YS02001757CaochengTiaoxuchi CONDUIT    827.47     0  02:57      1.75    0.36    1.00
  WSF200WS02003060     CONDUIT    565.49     0  02:33      1.62    0.13    0.35
  1                    CONDUIT    967.24     0  02:37      3.30    0.34    0.40
  2                    CONDUIT     13.14     0  02:30      2.68    0.03    0.12
  3                    CONDUIT    513.58     0  02:29      9.83    0.82    0.69
  4                    CONDUIT      0.00     0  00:00      0.00    0.00    0.00
  CC-Pump-1            PUMP       200.00     0  03:30              1.00
  CC-Pump-2            PUMP       200.00     0  02:16              1.00
  JK-Pump-1            PUMP       300.00     0  00:00              1.00
  JK-Pump-2            PUMP       300.00     0  02:19              1.00
  XR-Pump-1            PUMP        95.00     0  00:00              1.00
  XR-Pump-2            PUMP        95.00     0  02:00              1.00
  XR-Pump-3            PUMP        95.00     0  00:00              1.00
  XR-Pump-4            PUMP        95.00     0  02:00              1.00
  
  
  ***************************
  Flow Classification Summary
  ***************************
  
  -------------------------------------------------------------------------------------
                      Adjusted    ---------- Fraction of Time in Flow Class ---------- 
                       /Actual         Up    Down  Sub   Sup   Up    Down  Norm  Inlet 
  Conduit               Length    Dry  Dry   Dry   Crit  Crit  Crit  Crit  Ltd   Ctrl  
  -------------------------------------------------------------------------------------
  WS02003066WSF200        1.00   0.06  0.00  0.00  0.00  0.94  0.00  0.00  0.68  0.00
  WS02006287WS02006284    1.00   0.04  0.01  0.00  0.65  0.29  0.00  0.00  0.76  0.00
  WS02006284WS02006280    1.00   0.04  0.00  0.00  0.00  0.00  0.00  0.96  0.00  0.00
  WS02006280WS02006229    1.00   0.04  0.00  0.00  0.00  0.00  0.00  0.96  0.00  0.00
  WS02006229WS02006228    1.00   0.00  0.00  0.00  0.99  0.00  0.00  0.01  0.00  0.00
  WS02006256WS02006235    1.00   0.00  0.00  0.00  1.00  0.00  0.00  0.00  0.00  0.00
  WS02006253WS02006251    1.00   0.03  0.01  0.00  0.96  0.00  0.00  0.00  0.00  0.00
  WS02006252WS02006251    1.00   0.08  0.00  0.00  0.00  0.00  0.92  0.00  0.00  0.00
  WS02006251WS02006249    1.00   0.00  0.00  0.00  1.00  0.00  0.00  0.00  0.25  0.00
  WS02006249WS02006248    1.00   0.00  0.02  0.00  0.92  0.00  0.05  0.00  0.00  0.00
  WS02006248WS02006247    1.00   0.02  0.00  0.00  0.98  0.00  0.00  0.00  0.15  0.00
  WS02006247WS02006245    1.00   0.02  0.00  0.00  0.98  0.00  0.00  0.00  0.00  0.00
  WS02006245WS02006243    1.00   0.01  0.00  0.00  0.94  0.00  0.00  0.04  0.01  0.00
  WS02006243WS02006242    1.00   0.01  0.00  0.00  0.99  0.00  0.00  0.00  0.25  0.00
  WS02006242WS02006240    1.00   0.00  0.00  0.00  1.00  0.00  0.00  0.00  0.00  0.00
  WS02006240WS02006239    1.00   0.00  0.00  0.00  0.96  0.00  0.00  0.04  0.01  0.00
  WS02006239WS02006238    1.00   0.00  0.00  0.00  1.00  0.00  0.00  0.00  0.00  0.00
  WS02006238WS02006235    1.00   0.00  0.00  0.00  1.00  0.00  0.00  0.00  0.00  0.00
  WS02006235WS02006234    1.00   0.00  0.00  0.00  0.96  0.00  0.04  0.00  0.00  0.00
  WS02006234WS02006232    1.00   0.00  0.00  0.00  1.00  0.00  0.00  0.00  0.15  0.00
  WS02006232WS02006231    1.00   0.00  0.00  0.00  0.99  0.00  0.00  0.00  0.00  0.00
  WS02006231WS02006230    1.00   0.00  0.00  0.00  0.26  0.00  0.74  0.00  0.00  0.00
  WS02006230WS02006229    1.00   0.00  0.00  0.00  0.99  0.00  0.00  0.01  0.01  0.00
  WS02006228WS02006109    1.00   0.00  0.00  0.00  1.00  0.00  0.00  0.00  0.00  0.00
  WS02006116WS02004401    1.00   0.02  0.00  0.00  0.98  0.00  0.00  0.00  0.00  0.00
  WS02006115WS02006116    1.00   0.02  0.00  0.00  0.97  0.00  0.00  0.01  0.00  0.00
  WS02006113WS02006111    1.00   0.02  0.00  0.00  0.00  0.98  0.00  0.00  0.13  0.00
  WS02006112WS02006115    1.00   0.02  0.00  0.00  0.97  0.00  0.00  0.00  0.00  0.00
  WS02006111WS02006112    1.00   0.02  0.00  0.00  0.98  0.00  0.00  0.00  0.98  0.00
  WS02006110WS02006113    1.00   0.01  0.01  0.00  0.98  0.00  0.00  0.00  0.00  0.00
  WS02006109WS02006110    1.00   0.00  0.01  0.00  0.98  0.00  0.01  0.00  0.00  0.00
  WS02004411WS02004412    1.00   0.04  0.00  0.00  0.96  0.00  0.00  0.00  0.00  0.00
  WS02004401WS02004402    1.00   0.03  0.00  0.00  0.97  0.00  0.00  0.00  0.00  0.00
  WS02004413WS02003067    1.00   0.04  0.01  0.00  0.00  0.00  0.95  0.00  0.00  0.00
  WS02004412WS02004413    1.00   0.04  0.00  0.00  0.96  0.00  0.00  0.00  0.03  0.00
  WS02004410WS02004411    1.00   0.04  0.00  0.00  0.96  0.00  0.00  0.00  0.04  0.00
  WS02004409WS02004410    1.00   0.04  0.00  0.00  0.96  0.00  0.00  0.00  0.04  0.00
  WS02004407WS02004409    1.00   0.04  0.00  0.00  0.96  0.00  0.00  0.00  0.89  0.00
  WS02004406WS02004407    1.00   0.00  0.04  0.00  0.96  0.00  0.00  0.00  0.00  0.00
  WS02004405WS02004406    1.00   0.00  0.00  0.00  1.00  0.00  0.00  0.00  0.01  0.00
  WS02004404WS02004405    1.00   0.00  0.00  0.00  1.00  0.00  0.00  0.00  0.00  0.00
  WS02004403WS02004404    1.00   0.00  0.03  0.00  0.97  0.00  0.00  0.00  0.01  0.00
  WS02004402WS02004403    1.00   0.03  0.00  0.00  0.97  0.00  0.00  0.00  0.00  0.00
  WS02004139WS02001211    1.00   0.00  0.00  0.00  1.00  0.00  0.00  0.00  0.00  0.00
  WS02004138WS02004139    1.00   0.00  0.00  0.00  0.99  0.01  0.00  0.00  1.00  0.00
  WS02003067WS02003066    1.00   0.05  0.00  0.00  0.94  0.00  0.00  0.00  0.00  0.00
  WS02001213WS02003059    1.00   0.00  0.00  0.00  0.99  0.00  0.00  0.00  0.00  0.00
  WS02001212WS02001213    1.00   0.00  0.00  0.00  0.93  0.00  0.06  0.00  0.00  0.00
  WS02001211WS02001212    1.00   0.00  0.00  0.00  1.00  0.00  0.00  0.00  0.00  0.00
  WS02003072WS02003073    1.00   0.00  0.00  0.00  0.00  0.00  0.00  1.00  0.00  0.00
  WS02003069WS02003072    1.00   0.00  0.00  0.00  0.99  0.01  0.00  0.00  0.23  0.00
  WS02003060WS02003069    1.00   0.00  0.00  0.00  0.99  0.01  0.00  0.00  0.20  0.00
  WS02003059WS02003060    1.00   0.00  0.00  0.00  1.00  0.00  0.00  0.00  0.01  0.00
  HS02004901HS02004770    1.00   0.04  0.00  0.00  0.96  0.00  0.00  0.00  0.02  0.00
  HS02004876HS02004881    1.00   0.02  0.00  0.00  0.98  0.00  0.00  0.00  0.00  0.00
  HS02004870HS02004876    1.00   0.01  0.00  0.00  0.99  0.00  0.00  0.00  0.95  0.00
  HS02004842HS02004848    1.00   0.00  0.04  0.00  0.96  0.00  0.00  0.00  0.67  0.00
  HS02004837HS02004842    1.00   0.00  0.00  0.00  0.99  0.01  0.00  0.00  0.11  0.00
  HS02004830HS02004837    1.00   0.00  0.00  0.00  1.00  0.00  0.00  0.00  0.99  0.00
  HS02004824HS02004830    1.00   0.00  0.00  0.00  1.00  0.00  0.00  0.00  0.00  0.00
  HS02004817HS02004824    1.00   0.00  0.00  0.00  1.00  0.00  0.00  0.00  1.00  0.00
  HS02004770HS02004777    1.00   0.00  0.04  0.00  0.96  0.00  0.00  0.00  0.07  0.00
  HS02004799HS02004480    1.00   0.00  0.02  0.00  0.95  0.00  0.03  0.00  0.00  0.00
  HS02004792HS02004799    1.00   0.00  0.00  0.00  0.99  0.01  0.00  0.00  0.98  0.00
  HS02004788HS02004792    1.00   0.00  0.00  0.00  0.99  0.01  0.00  0.00  0.98  0.00
  HS02004785HS02004788    1.00   0.00  0.00  0.00  1.00  0.00  0.00  0.00  0.00  0.00
  HS02004777HS02004785    1.00   0.00  0.00  0.00  1.00  0.00  0.00  0.00  0.20  0.00
  HS02004480HS02004478    1.00   0.05  0.00  0.00  0.70  0.00  0.00  0.25  0.00  0.00
  HS02004479HS02004480    1.00   0.03  0.00  0.00  0.97  0.00  0.00  0.00  0.15  0.00
  HS02004862HS02004870    1.00   0.00  0.00  0.00  1.00  0.00  0.00  0.00  0.06  0.00
  HS02004848HS02004852    1.00   0.04  0.00  0.00  0.96  0.00  0.00  0.00  0.71  0.00
  HS02004856HS02004862    1.00   0.00  0.06  0.00  0.94  0.00  0.00  0.00  0.75  0.00
  HS02004852HS02004856    1.00   0.04  0.01  0.00  0.95  0.00  0.00  0.00  0.83  0.00
  HS02004802HS02004478    1.00   0.04  0.00  0.00  0.95  0.00  0.00  0.00  0.01  0.00
  HS02004478WS02006287    1.00   0.05  0.00  0.00  0.81  0.13  0.00  0.00  0.74  0.00
  HS02004817HS02004807    1.00   0.00  0.04  0.00  0.96  0.00  0.00  0.00  0.00  0.00
  HS02004807HS02004802    1.00   0.04  0.00  0.00  0.95  0.00  0.00  0.00  0.01  0.00
  YS02001759YS02001757    1.00   0.00  0.00  0.00  1.00  0.00  0.00  0.00  0.17  0.00
  YS02001762YS02001759    1.00   0.00  0.00  0.00  1.00  0.00  0.00  0.00  0.04  0.00
  YS02001765YS02001762    1.00   0.00  0.00  0.00  1.00  0.00  0.00  0.00  0.21  0.00
  YS02001770YS02001767    1.00   0.00  0.00  0.00  1.00  0.00  0.00  0.00  0.00  0.00
  YS02001774YS02001770    1.00   0.00  0.05  0.00  0.95  0.00  0.00  0.00  0.06  0.00
  YS02001779YS02001774    1.00   0.00  0.00  0.00  1.00  0.00  0.00  0.00  0.26  0.00
  YS02001649YS02001757    1.00   0.00  0.00  0.00  1.00  0.00  0.00  0.00  0.19  0.00
  YS02001767YS02001765    1.00   0.00  0.00  0.00  1.00  0.00  0.00  0.00  0.01  0.00
  YS02006561YS02001783    1.00   0.07  0.00  0.00  0.66  0.28  0.00  0.00  0.60  0.00
  YS02001783YS02001784    1.00   0.00  0.07  0.00  0.93  0.00  0.00  0.00  0.00  0.00
  YS02001784YS02001785    1.00   0.00  0.00  0.00  1.00  0.00  0.00  0.00  0.24  0.00
  YS02001788YS02001790    1.00   0.00  0.00  0.00  0.73  0.27  0.00  0.00  0.27  0.00
  YS02001790YS02001791    1.00   0.00  0.00  0.00  0.69  0.31  0.00  0.00  0.18  0.00
  YS02001791YS02001793    1.00   0.00  0.00  0.00  0.67  0.33  0.00  0.00  0.00  0.00
  YS02001910YS02001907    1.00   0.00  0.00  0.00  0.97  0.00  0.00  0.02  0.13  0.00
  YS02001786YS02001788    1.00   0.00  0.00  0.00  0.73  0.27  0.00  0.00  0.00  0.00
  YS02001915YS02001910    1.00   0.00  0.00  0.00  0.99  0.01  0.00  0.00  0.23  0.00
  YS02001918YS02001915    1.00   0.00  0.01  0.00  0.98  0.01  0.00  0.00  0.69  0.00
  YS02001923YS02001920    1.00   0.00  0.00  0.00  1.00  0.00  0.00  0.00  1.00  0.00
  YS02001926YS02001923    1.00   0.00  0.03  0.00  0.00  0.00  0.97  0.00  0.00  0.00
  YS02001929YS02001926    1.00   0.00  0.04  0.00  0.96  0.00  0.00  0.00  0.87  0.00
  YS02001920YS02001918    1.00   0.00  0.01  0.00  0.99  0.00  0.00  0.00  0.00  0.00
  YS02001629YS02163301    1.00   0.06  0.00  0.00  0.94  0.00  0.00  0.00  0.00  0.00
  YS02001619YS02001622    1.00   0.04  0.00  0.00  0.96  0.00  0.00  0.00  0.00  0.00
  YS02001622YS02001625    1.00   0.04  0.00  0.00  0.96  0.00  0.00  0.00  0.12  0.00
  YS02001625YS02001629    1.00   0.04  0.02  0.00  0.92  0.00  0.01  0.00  0.00  0.00
  YS02163301YS02001633    1.00   0.00  0.06  0.00  0.94  0.00  0.00  0.00  0.00  0.00
  YS02163601YS02164001    1.00   0.00  0.03  0.00  0.97  0.00  0.00  0.00  0.00  0.00
  YS02164001YS02001641    1.00   0.01  0.03  0.00  0.97  0.00  0.00  0.00  0.07  0.00
  YS02001641YS02001644    1.00   0.00  0.01  0.00  0.99  0.00  0.00  0.00  0.00  0.00
  YS02001647YS02001649    1.00   0.00  0.06  0.00  0.94  0.00  0.00  0.00  0.01  0.00
  YS02006553YS02006556    1.00   0.01  0.00  0.00  0.99  0.00  0.00  0.00  0.03  0.00
  YS02006556YS02006558    1.00   0.00  0.00  0.00  1.00  0.00  0.00  0.00  0.00  0.00
  YSB6556YSB1171          1.00   0.03  0.01  0.00  0.96  0.00  0.00  0.00  0.00  0.00
  YS02001907YS02006553    1.00   0.00  0.02  0.00  0.98  0.00  0.00  0.00  0.00  0.00
  YS02006558YS02006561    1.00   0.07  0.00  0.00  0.00  0.93  0.00  0.00  0.60  0.00
  YS02001633YS02163601    1.00   0.00  0.01  0.00  0.99  0.00  0.00  0.00  0.19  0.00
  YS02001644YS02001647    1.00   0.00  0.06  0.00  0.94  0.00  0.00  0.00  0.00  0.00
  YS02001745YS02001748    1.00   0.00  0.00  0.00  0.88  0.01  0.00  0.11  0.08  0.00
  YS02001748YS02001751    1.00   0.00  0.00  0.00  0.97  0.03  0.00  0.00  0.23  0.00
  YS02001751YS02001754    1.00   0.00  0.00  0.00  0.93  0.00  0.00  0.07  0.01  0.00
  YS02001754YS02001757    1.00   0.00  0.00  0.00  0.99  0.01  0.00  0.00  0.26  0.00
  YS02001882YS02001884    1.00   0.05  0.00  0.00  0.94  0.00  0.00  0.00  0.00  0.00
  YS02001884YS02001887    1.00   0.03  0.01  0.00  0.96  0.00  0.00  0.00  0.00  0.00
  YS02001890YS02001895    1.00   0.00  0.06  0.00  0.94  0.00  0.00  0.00  0.00  0.00
  YS02001895YS02001898    1.00   0.06  0.00  0.00  0.93  0.00  0.01  0.00  0.00  0.00
  YS02001898YS02001901    1.00   0.06  0.00  0.00  0.94  0.00  0.00  0.00  0.02  0.00
  YS02001901YS02001904    1.00   0.06  0.00  0.00  0.94  0.00  0.00  0.00  0.00  0.00
  YS02001904YS02001907    1.00   0.00  0.06  0.00  0.94  0.00  0.00  0.00  0.00  0.00
  YS02001887YS02001890    1.00   0.00  0.00  0.00  0.97  0.00  0.02  0.00  0.00  0.00
  YS02001652YS02001649    1.00   0.00  0.00  0.00  1.00  0.00  0.00  0.00  0.25  0.00
  YS02001655YS02001652    1.00   0.00  0.00  0.00  0.93  0.00  0.00  0.07  0.01  0.00
  YS02001658YS02001655    1.00   0.00  0.05  0.00  0.92  0.03  0.00  0.00  0.08  0.00
  YS02001661YS02001658    1.00   0.05  0.00  0.00  0.88  0.07  0.00  0.00  0.09  0.00
  YS02001664YS02001661    1.00   0.04  0.00  0.00  0.80  0.15  0.00  0.00  0.38  0.00
  YSB1154YSB6556          1.00   0.04  0.00  0.00  0.96  0.00  0.00  0.00  0.02  0.00
  YSB1174YSB1171          1.00   0.03  0.01  0.00  0.96  0.00  0.00  0.00  0.00  0.00
  YSB1171HS02004479       1.00   0.03  0.00  0.00  0.97  0.00  0.00  0.00  0.13  0.00
  HS02004881HS02006253    1.00   0.03  0.00  0.00  0.91  0.00  0.00  0.06  0.71  0.00
  YS02001793JiankangQianchi    1.00   0.00  0.00  0.00  0.77  0.23  0.00  0.00  0.08  0.00
  YS02001757CaochengTiaoxuchi    1.00   0.00  0.08  0.00  0.92  0.00  0.00  0.00  0.00  0.00
  WSF200WS02003060        1.00   0.00  0.06  0.00  0.94  0.00  0.00  0.00  0.60  0.00
  1                       1.00   0.00  0.00  0.00  0.00  1.00  0.00  0.00  0.63  0.00
  2                       1.00   0.92  0.00  0.00  0.00  0.08  0.00  0.00  0.02  0.00
  3                       1.00   0.74  0.00  0.00  0.00  0.26  0.00  0.00  0.82  0.00
  4                       1.00   1.00  0.00  0.00  0.00  0.00  0.00  0.00  0.00  0.00
  
  
  *************************
  Conduit Surcharge Summary
  *************************
  
  ----------------------------------------------------------------------------
                                                           Hours        Hours 
                         --------- Hours Full --------   Above Full   Capacity
  Conduit                Both Ends  Upstream  Dnstream   Normal Flow   Limited
  ----------------------------------------------------------------------------
  WS02006229WS02006228        0.99      1.14      0.99      1.37         0.99
  WS02006256WS02006235        5.78      5.79      6.55      1.00         0.01
  WS02006249WS02006248        0.01      0.01      0.01      5.56         0.01
  WS02006247WS02006245        0.01      0.01      0.01      5.57         0.01
  WS02006243WS02006242        0.01      0.01      0.30      0.01         0.01
  WS02006242WS02006240        0.06      0.06      0.47      0.01         0.01
  WS02006240WS02006239        0.16      0.16      0.31      0.01         0.01
  WS02006239WS02006238        0.53      0.53      0.65      0.01         0.01
  WS02006238WS02006235        0.62      0.62      0.72      0.01         0.01
  WS02006235WS02006234        0.34      0.34      0.56      5.80         0.01
  WS02006234WS02006232        0.47      0.47      0.80      0.01         0.01
  WS02006232WS02006231        0.01      0.01      0.80      0.01         0.01
  WS02006231WS02006230        0.01      0.01      0.10      5.80         0.01
  WS02006230WS02006229        1.29      1.32      1.29      5.88         1.29
  WS02006228WS02006109        1.10      1.25      1.10      2.52         1.10
  WS02006112WS02006115        0.01      0.01      0.58      0.01         0.01
  WS02006111WS02006112        0.01      0.01      1.41      0.01         0.01
  WS02006110WS02006113        0.01      0.01      1.20      0.01         0.01
  WS02006109WS02006110        0.35      0.35      1.25      0.36         0.01
  WS02004405WS02004406        0.01      0.01      0.01      0.47         0.01
  WS02004404WS02004405        0.01      0.01      0.01      5.67         0.01
  WS02003072WS02003073        0.01      0.01      0.01      5.58         0.01
  YS02001759YS02001757        5.43      5.43      5.49      0.01         0.01
  YS02001762YS02001759        5.39      5.39      5.43      0.01         0.03
  YS02001765YS02001762        5.37      5.37      5.39      0.01         0.01
  YS02001770YS02001767        5.34      5.34      5.34      0.01         0.75
  YS02001774YS02001770        5.30      5.30      5.39      0.01         0.01
  YS02001779YS02001774        4.64      4.64      5.39      0.01         0.01
  YS02001649YS02001757        5.41      5.41      5.49      0.01         0.01
  YS02001767YS02001765        5.34      5.34      5.37      0.01         0.03
  YS02001784YS02001785        0.01      0.01      0.01      0.71         0.01
  YS02001788YS02001790        0.01      0.01      4.22      0.01         0.01
  YS02001790YS02001791        4.22      4.22      4.24      0.01         0.01
  YS02001791YS02001793        4.24      4.24      4.28      0.01         0.01
  YS02001629YS02163301        5.31      5.31      5.33      0.01         0.01
  YS02001619YS02001622        4.01      4.02      4.12      0.01         0.01
  YS02001622YS02001625        4.12      4.12      5.17      0.01         0.01
  YS02001625YS02001629        4.03      4.03      5.17      0.01         0.01
  YS02163301YS02001633        5.33      5.33      5.38      0.01         0.01
  YS02163601YS02164001        5.37      5.37      5.40      0.01         0.01
  YS02164001YS02001641        5.37      5.37      5.38      0.01         0.01
  YS02001641YS02001644        5.38      5.38      5.38      0.01         1.02
  YS02001647YS02001649        5.13      5.13      5.41      0.01         0.01
  YS02001907YS02006553        0.73      0.73      0.98      0.01         0.01
  YS02006558YS02006561        0.01      0.01      0.01      0.46         0.01
  YS02001633YS02163601        5.36      5.36      5.40      0.01         0.01
  YS02001644YS02001647        5.13      5.13      5.38      0.01         0.01
  YS02001745YS02001748        0.01      0.01      2.88      0.01         0.01
  YS02001748YS02001751        3.53      3.53      4.17      0.01         0.01
  YS02001751YS02001754        4.17      4.17      4.78      0.01         0.01
  YS02001754YS02001757        5.11      5.11      5.49      0.01         0.01
  YS02001652YS02001649        5.14      5.14      5.41      0.01         0.01
  YS02001655YS02001652        4.27      4.27      5.00      0.01         0.01
  YS02001658YS02001655        2.93      2.93      4.27      0.01         0.01
  YS02001661YS02001658        0.01      0.01      2.93      0.01         0.01
  YS02001793JiankangQianchi        4.27      4.27      4.79      0.01         0.01
  YS02001757CaochengTiaoxuchi        3.73      3.73      5.49      0.01         0.01
  
  
  ***************
  Pumping Summary
  ***************
  
  ---------------------------------------------------------------------------------------------------------
                                                  Min       Avg       Max     Total     Power    % Time Off
                        Percent   Number of      Flow      Flow      Flow    Volume     Usage    Pump Curve
  Pump                 Utilized   Start-Ups       LPS       LPS       LPS  10^6 ltr     Kw-hr    Low   High
  ---------------------------------------------------------------------------------------------------------
  CC-Pump-1               61.70           1      0.00    188.38    200.00     3.300      4.29    0.0    0.0
  CC-Pump-2               16.52           1      0.00    161.22    200.00     0.725      2.59    0.0   47.8
  JK-Pump-1               44.68           1      0.00    209.50    300.00     1.323     24.01    0.0    0.0
  JK-Pump-2               21.27           1      0.00    231.05    300.00     1.137     21.09    0.0    0.0
  XR-Pump-1              100.00           1      0.00     95.00     95.00     2.679     33.18    0.0    0.0
  XR-Pump-2               21.27           1      0.00     79.29     95.00     0.456      6.07    0.0    0.0
  XR-Pump-3              100.00           1      0.00     95.00     95.00     2.679     33.18    0.0    0.0
  XR-Pump-4               76.59           1      0.00     94.76     95.00     2.023     25.87    0.0    0.0
  

  Analysis begun on:  Tue Dec 21 18:08:49 2021
  Analysis ended on:  Tue Dec 21 18:08:53 2021
  Total elapsed time: 00:00:04