
  EPA STORM WATER MANAGEMENT MODEL - VERSION 5.1 (Build 5.3.0.dev0)
  --------------------------------------------------------------

  WARNING 04: minimum elevation drop used for Conduit WS02004404WS02004405
  WARNING 03: negative offset ignored for Link YS02001904YS02001907
  
  *********************************************************
  NOTE: The summary statistics displayed in this report are
  based on results found at every computational time step,  
  not just on results from each reporting time step.
  *********************************************************
  
  ****************
  Analysis Options
  ****************
  Flow Units ............... LPS
  Process Models:
    Rainfall/Runoff ........ YES
    RDII ................... NO
    Snowmelt ............... NO
    Groundwater ............ NO
    Flow Routing ........... YES
    Ponding Allowed ........ NO
    Water Quality .......... NO
  Infiltration Method ...... HORTON
  Flow Routing Method ...... DYNWAVE
  Surcharge Method ......... EXTRAN
  Starting Date ............ 08/28/2015 08:00:00
  Ending Date .............. 08/28/2015 15:50:00
  Antecedent Dry Days ...... 8.0
  Report Time Step ......... 00:01:00
  Wet Time Step ............ 00:01:00
  Dry Time Step ............ 00:01:00
  Routing Time Step ........ 5.00 sec
  Variable Time Step ....... YES
  Maximum Trials ........... 8
  Number of Threads ........ 4
  Head Tolerance ........... 0.001500 m
  
  
  **************************        Volume         Depth
  Runoff Quantity Continuity     hectare-m            mm
  **************************     ---------       -------
  Total Precipitation ......         2.221         4.862
  Evaporation Loss .........         0.000         0.000
  Infiltration Loss ........         0.552         1.209
  Surface Runoff ...........         0.830         1.818
  Final Storage ............         0.838         1.836
  Continuity Error (%) .....        -0.018
  
  
  **************************        Volume        Volume
  Flow Routing Continuity        hectare-m      10^6 ltr
  **************************     ---------     ---------
  Dry Weather Inflow .......         0.616         6.165
  Wet Weather Inflow .......         0.830         8.296
  Groundwater Inflow .......         0.000         0.000
  RDII Inflow ..............         0.000         0.000
  External Inflow ..........         0.102         1.024
  External Outflow .........         1.802        18.022
  Flooding Loss ............         0.000         0.000
  Evaporation Loss .........         0.000         0.000
  Exfiltration Loss ........         0.000         0.000
  Initial Stored Volume ....         0.076         0.761
  Final Stored Volume ......         0.139         1.391
  Continuity Error (%) .....       -19.506
  
  
  *************************
  Highest Continuity Errors
  *************************
  Node JK-storage (-84.65%)
  Node HS02004842 (32.87%)
  Node YS02001884 (27.28%)
  Node YSB1171 (8.79%)
  Node YS02001774 (7.41%)
  
  
  ***************************
  Time-Step Critical Elements
  ***************************
  Link WS02006252WS02006251 (52.82%)
  Link 3 (31.41%)
  Link WS02006238WS02006235 (10.55%)
  Link WS02006280WS02006229 (1.87%)
  
  
  ********************************
  Highest Flow Instability Indexes
  ********************************
  Link WS02006113WS02006111 (38)
  Link WS02006111WS02006112 (23)
  Link YS02001762YS02001759 (3)
  Link YS02001754YS02001757 (3)
  Link WS02006110WS02006113 (3)
  
  
  *************************
  Routing Time Step Summary
  *************************
  Minimum Time Step           :     0.07 sec
  Average Time Step           :     0.85 sec
  Maximum Time Step           :     5.00 sec
  Percent in Steady State     :    -0.00
  Average Iterations per Step :     2.01
  Percent Not Converging      :     0.08
  
  
  ***************************
  Subcatchment Runoff Summary
  ***************************
  
  ------------------------------------------------------------------------------------------------------------------------------
                            Total      Total      Total      Total     Imperv       Perv      Total       Total     Peak  Runoff
                           Precip      Runon       Evap      Infil     Runoff     Runoff     Runoff      Runoff   Runoff   Coeff
  Subcatchment                 mm         mm         mm         mm         mm         mm         mm    10^6 ltr      LPS
  ------------------------------------------------------------------------------------------------------------------------------
  sub0                       4.86       0.00       0.00       0.34       3.26       0.00       3.26        0.00     1.06   0.670
  sub1                       4.86       0.00       0.00       0.53       3.07       0.00       3.07        0.02     5.41   0.632
  sub2                       4.86       0.00       0.00       1.80       2.16       0.00       2.16        0.02     4.75   0.444
  sub3                       4.86       0.00       0.00       1.80       2.13       0.00       2.13        0.05     9.71   0.437
  sub4                       4.86       0.00       0.00       0.53       2.94       0.00       2.94        0.06    10.83   0.605
  sub5                       4.86       0.00       0.00       0.34       3.21       0.00       3.21        0.04     9.61   0.660
  sub7                       4.86       0.00       0.00       0.44       3.17       0.00       3.17        0.01     3.43   0.652
  sub8                       4.86       0.00       0.00       0.44       3.16       0.00       3.16        0.02     6.02   0.650
  sub9                       4.86       0.00       0.00       0.44       3.16       0.00       3.16        0.02     4.46   0.650
  sub10                      4.86       0.00       0.00       0.39       3.18       0.00       3.18        0.04     9.61   0.655
  sub11                      4.86       0.00       0.00       0.39       3.20       0.00       3.20        0.04    11.35   0.658
  sub12                      4.86       0.00       0.00       0.63       3.04       0.00       3.04        0.03     9.73   0.626
  sub14                      4.86       0.00       0.00       0.44       3.16       0.00       3.16        0.03     8.71   0.649
  sub15                      4.86       0.00       0.00       1.46       2.43       0.00       2.43        0.04    11.80   0.499
  sub16                      4.86       0.00       0.00       1.60       2.34       0.00       2.34        0.02     8.52   0.481
  sub17                      4.86       0.00       0.00       1.56       2.37       0.00       2.37        0.02     6.86   0.488
  sub22                      4.86       0.00       0.00       2.09       1.98       0.00       1.98        0.13    38.87   0.408
  sub23                      4.86       0.00       0.00       1.80       2.19       0.00       2.19        0.10    33.14   0.451
  sub60                      4.86       0.00       0.00       0.58       2.00       0.00       2.00        0.61    53.29   0.411
  sub61                      4.86       0.00       0.00       0.83       2.18       0.00       2.18        0.67    67.47   0.448
  sub62                      4.86       0.00       0.00       0.39       2.32       0.00       2.32        0.71    68.82   0.477
  sub63                      4.86       0.00       0.00       1.41       1.95       0.00       1.95        0.59    63.15   0.401
  sub64                      4.86       0.00       0.00       0.73       1.91       0.00       1.91        0.58    50.55   0.392
  sub65                      4.86       0.00       0.00       0.63       1.93       0.00       1.93        0.59    51.23   0.397
  sub66                      4.86       0.00       0.00       1.41       1.67       0.00       1.67        0.51    46.56   0.344
  sub67                      4.86       0.00       0.00       0.39       2.59       0.00       2.59        0.80    88.93   0.533
  sub68                      4.86       0.00       0.00       0.68       2.33       0.00       2.33        0.72    74.73   0.478
  sub69                      4.86       0.00       0.00       0.73       2.55       0.00       2.55        0.60    74.84   0.525
  sub70                      4.86       2.60       0.00       2.54       3.02       0.00       3.02        0.69    57.41   0.405
  sub71                      4.86       0.00       0.00       0.39       2.21       0.00       2.21        0.52    47.92   0.454
  sub72                      4.86       0.00       0.00       0.34       1.50       0.00       1.50        0.31    21.96   0.308
  sub73                      4.86       2.94       0.00       2.65       2.99       0.00       2.99        0.70    48.96   0.384
  sub74                      4.86       0.00       0.00       3.65       0.77       0.00       0.77        0.31    41.89   0.159
  
  
  ******************
  Node Depth Summary
  ******************
  
  ---------------------------------------------------------------------------------
                                 Average  Maximum  Maximum  Time of Max    Reported
                                   Depth    Depth      HGL   Occurrence   Max Depth
  Node                 Type       Meters   Meters   Meters  days hr:min      Meters
  ---------------------------------------------------------------------------------
  WS02001211           JUNCTION     0.71     0.78     5.62     0  02:56        0.78
  WS02001212           JUNCTION     0.43     0.49     5.56     0  02:55        0.49
  WS02001213           JUNCTION     0.66     0.74     5.50     0  02:54        0.74
  WS02003069           JUNCTION     0.46     0.55     5.13     0  02:53        0.55
  WS02003072           JUNCTION     0.52     0.61     4.98     0  02:54        0.61
  WS02003073           JUNCTION     0.32     0.37     4.44     0  02:54        0.37
  WS02003060           JUNCTION     0.41     0.48     5.42     0  02:53        0.48
  WS02003066           JUNCTION     0.23     0.27     5.83     0  02:51        0.27
  WS02003059           JUNCTION     0.71     0.79     5.48     0  02:54        0.79
  WS02003067           JUNCTION     0.57     0.66     5.98     0  02:51        0.66
  WS02004401           JUNCTION     0.66     0.78     6.78     0  02:47        0.78
  WS02004402           JUNCTION     0.70     0.81     6.77     0  02:47        0.81
  WS02004403           JUNCTION     0.72     0.83     6.76     0  02:47        0.83
  WS02004404           JUNCTION     0.79     0.90     6.75     0  02:47        0.90
  WS02004406           JUNCTION     0.80     0.90     6.73     0  02:47        0.90
  WS02004409           JUNCTION     0.48     0.60     6.37     0  02:50        0.60
  WS02004410           JUNCTION     0.50     0.62     6.34     0  02:50        0.62
  WS02004411           JUNCTION     0.52     0.63     6.31     0  02:50        0.63
  WS02004412           JUNCTION     0.54     0.64     6.28     0  02:50        0.64
  WS02004413           JUNCTION     0.69     0.80     6.27     0  02:51        0.80
  WS02004405           JUNCTION     0.79     0.90     6.75     0  02:47        0.90
  WS02006109           JUNCTION     0.74     0.87     7.48     0  02:42        0.87
  WS02006110           JUNCTION     0.74     0.85     7.43     0  02:42        0.85
  WS02006111           JUNCTION     0.22     0.26     6.97     0  02:42        0.26
  WS02006112           JUNCTION     0.83     0.96     6.84     0  02:46        0.96
  WS02006113           JUNCTION     0.33     0.41     7.30     0  02:41        0.41
  WS02006115           JUNCTION     0.55     0.67     6.81     0  02:47        0.67
  WS02006116           JUNCTION     0.64     0.75     6.79     0  02:46        0.75
  WS02006230           JUNCTION     0.70     0.87     7.61     0  02:42        0.87
  WS02006231           JUNCTION     0.47     0.57     7.69     0  06:49        0.57
  WS02006232           JUNCTION     0.61     0.72     7.76     0  06:49        0.72
  WS02006234           JUNCTION     0.52     0.66     7.82     0  06:49        0.66
  WS02006235           JUNCTION     0.56     0.70     7.86     0  06:48        0.70
  WS02006238           JUNCTION     0.58     0.73     7.87     0  06:48        0.73
  WS02006240           JUNCTION     0.48     0.66     7.96     0  06:49        0.66
  WS02006242           JUNCTION     0.53     0.74     8.01     0  06:49        0.74
  WS02006243           JUNCTION     0.41     0.63     8.05     0  06:49        0.63
  WS02006245           JUNCTION     0.39     0.61     8.09     0  06:50        0.61
  WS02006247           JUNCTION     0.41     0.63     8.13     0  06:50        0.63
  WS02006248           JUNCTION     0.36     0.57     8.15     0  06:50        0.57
  WS02006249           JUNCTION     0.39     0.59     8.19     0  06:50        0.59
  WS02006239           JUNCTION     0.54     0.71     7.92     0  06:49        0.71
  WS02006251           JUNCTION     0.38     0.61     8.28     0  06:51        0.61
  WS02006252           JUNCTION     0.34     0.58     8.83     0  06:40        0.58
  WS02006253           JUNCTION     0.41     0.64     8.28     0  06:50        0.64
  WS02006256           JUNCTION     1.03     1.17     8.10     0  02:59        1.17
  WS02004138           JUNCTION     0.17     0.19     7.44     0  02:00        0.19
  WS02004407           JUNCTION     0.22     0.27     6.58     0  02:48        0.27
  WS02006228           JUNCTION     0.73     0.88     7.53     0  02:42        0.88
  WS02006229           JUNCTION     0.71     0.87     7.56     0  02:42        0.87
  WS02006280           JUNCTION     0.05     0.13     8.40     0  02:21        0.13
  WS02006284           JUNCTION     0.34     0.45     8.85     0  02:21        0.45
  WS02006287           JUNCTION     0.07     0.18     9.14     0  02:21        0.18
  WSF200               JUNCTION     0.21     0.26     5.50     0  02:50        0.26
  HS02004901           JUNCTION     0.10     0.20    10.03     0  02:19        0.20
  HS02004881           JUNCTION     0.00     0.02     9.05     0  02:20        0.02
  HS02004876           JUNCTION     0.03     0.09     9.12     0  02:20        0.09
  HS02004870           JUNCTION     0.01     0.03     9.32     0  02:21        0.03
  HS02004862           JUNCTION     0.01     0.04     9.42     0  02:22        0.04
  HS02004856           JUNCTION     0.07     0.10     9.52     0  02:21        0.10
  HS02004852           JUNCTION     0.01     0.02     9.53     0  02:22        0.02
  HS02004848           JUNCTION     0.01     0.02     9.62     0  02:20        0.02
  HS02004842           JUNCTION     0.33     0.35     9.62     0  02:20        0.35
  HS02004837           JUNCTION     0.02     0.04     9.62     0  02:20        0.04
  HS02004830           JUNCTION     0.04     0.05     9.52     0  02:20        0.05
  HS02004824           JUNCTION     0.02     0.03     9.44     0  02:24        0.03
  HS02004817           JUNCTION     0.42     0.50     9.35     0  02:21        0.50
  HS02004807           JUNCTION     0.11     0.18     9.35     0  02:21        0.18
  HS02004802           JUNCTION     0.14     0.21     9.34     0  02:21        0.21
  HS02004799           JUNCTION     0.09     0.22     9.43     0  02:19        0.22
  HS02004792           JUNCTION     0.02     0.08     9.60     0  02:19        0.08
  HS02004788           JUNCTION     0.02     0.06     9.96     0  02:20        0.06
  HS02004785           JUNCTION     0.03     0.11    10.01     0  02:20        0.11
  HS02004777           JUNCTION     0.13     0.23    10.03     0  02:19        0.23
  HS02004770           JUNCTION     0.10     0.20    10.03     0  02:19        0.20
  HS02004480           JUNCTION     0.06     0.17     9.41     0  02:20        0.17
  HS02004479           JUNCTION     0.09     0.21     9.41     0  02:20        0.21
  HS02004478           JUNCTION     0.05     0.11     9.33     0  02:21        0.11
  YS02001745           JUNCTION     0.07     0.10     7.62     0  03:01        0.10
  YS02001748           JUNCTION     0.15     0.30     7.38     0  04:10        0.30
  YS02001751           JUNCTION     0.32     0.52     7.40     0  04:10        0.51
  YS02001754           JUNCTION     0.57     0.81     7.41     0  04:09        0.78
  YS02001762           JUNCTION     0.77     0.96     7.36     0  04:09        0.95
  YS02001765           JUNCTION     0.72     0.89     7.34     0  04:05        0.89
  YS02001767           JUNCTION     0.68     0.87     7.36     0  04:08        0.86
  YS02001770           JUNCTION     0.68     0.84     7.34     0  04:07        0.83
  YS02001774           JUNCTION     0.75     0.91     7.33     0  04:08        0.91
  YS02001779           JUNCTION     0.50     0.67     7.35     0  04:07        0.67
  YS02001882           JUNCTION     0.25     0.38     7.10     0  02:58        0.38
  YS02001884           JUNCTION     0.34     0.48     7.10     0  02:57        0.48
  YS02001759           JUNCTION     0.80     0.98     7.35     0  04:06        0.98
  YS02001887           JUNCTION     0.42     0.56     7.10     0  02:57        0.56
  YS02001890           JUNCTION     0.45     0.59     7.09     0  02:58        0.59
  YS02001898           JUNCTION     0.22     0.34     7.08     0  02:58        0.34
  YS02001901           JUNCTION     0.34     0.47     7.08     0  02:59        0.47
  YS02001904           JUNCTION     0.32     0.45     7.08     0  02:59        0.45
  YS02001907           JUNCTION     0.65     0.79     7.08     0  02:59        0.79
  YS02001910           JUNCTION     0.44     0.57     7.08     0  02:59        0.57
  YS02001915           JUNCTION     0.24     0.36     7.08     0  02:59        0.36
  YS02001918           JUNCTION     0.07     0.08     7.15     0  03:04        0.08
  YS02001619           JUNCTION     0.28     0.42     7.34     0  04:23        0.41
  YS02001629           JUNCTION     0.63     0.79     7.34     0  04:25        0.79
  YS02001641           JUNCTION     0.73     0.90     7.34     0  04:17        0.90
  YS02001644           JUNCTION     0.74     0.91     7.34     0  04:17        0.91
  YS02001652           JUNCTION     0.58     0.78     7.37     0  04:11        0.77
  YS02001655           JUNCTION     0.35     0.52     7.37     0  04:21        0.52
  YS02001920           JUNCTION     0.16     0.18     7.19     0  03:03        0.18
  YS02001923           JUNCTION     0.05     0.07     7.33     0  03:02        0.07
  YS02001926           JUNCTION     0.12     0.15     7.60     0  03:02        0.15
  YS02001929           JUNCTION     0.06     0.07     7.77     0  03:01        0.07
  YS02001658           JUNCTION     0.11     0.23     7.37     0  04:23        0.22
  YS02001661           JUNCTION     0.13     0.18     7.58     0  02:49        0.18
  YS02001664           JUNCTION     0.06     0.10     8.02     0  02:49        0.10
  YS02001622           JUNCTION     0.30     0.43     7.33     0  04:26        0.43
  YS02001633           JUNCTION     0.72     0.88     7.33     0  04:33        0.88
  YS02001649           JUNCTION     0.77     0.95     7.34     0  04:15        0.94
  YS02001757           JUNCTION     0.90     1.09     7.35     0  03:58        1.08
  YS02001895           JUNCTION     0.22     0.34     7.09     0  02:58        0.34
  YS02001625           JUNCTION     0.58     0.73     7.34     0  04:23        0.73
  YS02163301           JUNCTION     0.66     0.82     7.34     0  04:25        0.82
  YS02163601           JUNCTION     0.77     0.93     7.33     0  04:25        0.93
  YS02164001           JUNCTION     0.71     0.88     7.34     0  04:17        0.88
  YS02001647           JUNCTION     0.57     0.72     7.33     0  04:26        0.72
  YSB1154              JUNCTION     0.23     0.35     9.41     0  02:20        0.35
  YSB6556              JUNCTION     0.13     0.24     9.41     0  02:20        0.24
  YSB1174              JUNCTION     0.18     0.30     9.41     0  02:20        0.30
  YSB1171              JUNCTION     0.38     0.51     9.41     0  02:19        0.51
  YS02006553           JUNCTION     0.65     0.79     7.08     0  02:59        0.79
  YS02006561           JUNCTION     0.12     0.19     6.85     0  02:59        0.19
  YS02006556           JUNCTION     0.62     0.76     7.07     0  02:59        0.76
  YS02006558           JUNCTION     0.67     0.81     7.07     0  02:59        0.81
  YS02001783           JUNCTION     0.20     0.33     6.47     0  02:59        0.33
  YS02001784           JUNCTION     0.24     0.36     6.43     0  02:59        0.36
  YS02001786           JUNCTION     0.20     0.31     6.34     0  03:00        0.31
  YS02001788           JUNCTION     0.15     0.23     6.20     0  03:00        0.23
  YS02001790           JUNCTION     0.18     0.28     5.92     0  03:00        0.28
  YS02001791           JUNCTION     0.12     0.18     5.65     0  03:00        0.18
  YS02001793           JUNCTION     0.08     0.12     4.95     0  03:01        0.12
  WS02004139           JUNCTION     0.66     0.73     5.64     0  02:56        0.73
  WSC                  OUTFALL      0.32     0.37     1.04     0  02:55        0.37
  3                    OUTFALL      0.08     0.16     6.16     0  02:59        0.16
  4                    OUTFALL      0.01     0.09     7.09     0  06:50        0.09
  5                    OUTFALL      0.00     0.00     5.00     0  00:00        0.00
  JK-storage           STORAGE      0.03     3.00     3.80     0  00:00        2.70
  CC-storage           STORAGE      0.15     0.29     7.29     0  04:41        0.29
  XR-storage           STORAGE      0.84     5.57     3.57     0  01:50        5.57
  
  
  *******************
  Node Inflow Summary
  *******************
  
  -------------------------------------------------------------------------------------------------
                                  Maximum  Maximum                  Lateral       Total        Flow
                                  Lateral    Total  Time of Max      Inflow      Inflow     Balance
                                   Inflow   Inflow   Occurrence      Volume      Volume       Error
  Node                 Type           LPS      LPS  days hr:min    10^6 ltr    10^6 ltr     Percent
  -------------------------------------------------------------------------------------------------
  WS02001211           JUNCTION      7.35   387.85     0  03:19       0.207        8.18       0.455
  WS02001212           JUNCTION      0.00   388.06     0  03:18           0        8.14       0.255
  WS02001213           JUNCTION      0.00   388.27     0  03:19           0        8.12       0.279
  WS02003069           JUNCTION      0.32   846.45     0  02:53     0.00902        15.3       0.197
  WS02003072           JUNCTION      0.00   846.44     0  02:54           0        15.3       0.241
  WS02003073           JUNCTION      1.82   848.26     0  02:54      0.0514        15.3       0.274
  WS02003060           JUNCTION     16.53   846.12     0  02:52       0.466        15.3       0.186
  WS02003066           JUNCTION      0.00   443.17     0  02:51           0        6.79       0.062
  WS02003059           JUNCTION      0.00   388.61     0  03:26           0         8.1       0.480
  WS02003067           JUNCTION      0.00   443.17     0  02:51           0         6.8       0.133
  WS02004401           JUNCTION      0.00   444.81     0  02:45           0        7.03       0.288
  WS02004402           JUNCTION      0.00   444.46     0  02:46           0        7.01       0.274
  WS02004403           JUNCTION      0.00   444.40     0  02:46           0        6.99       0.250
  WS02004404           JUNCTION      0.16   444.47     0  02:47     0.00457        6.97       0.191
  WS02004406           JUNCTION      0.00   444.49     0  02:47           0        6.94       0.466
  WS02004409           JUNCTION      0.00   444.44     0  02:48           0         6.9       0.220
  WS02004410           JUNCTION      0.00   443.94     0  02:48           0        6.89       0.252
  WS02004411           JUNCTION      0.00   443.56     0  02:49           0        6.87       0.261
  WS02004412           JUNCTION      0.00   443.33     0  02:50           0        6.85       0.284
  WS02004413           JUNCTION      0.00   443.20     0  02:50           0        6.83       0.424
  WS02004405           JUNCTION      0.04   444.48     0  02:47     0.00107        6.96       0.285
  WS02006109           JUNCTION      1.23   443.45     0  02:42      0.0347        7.12       0.291
  WS02006110           JUNCTION      0.00   443.45     0  02:42           0         7.1       0.259
  WS02006111           JUNCTION      0.00   455.75     0  02:43           0        7.07       0.054
  WS02006112           JUNCTION      6.86   449.19     0  02:42      0.0203        7.09       0.392
  WS02006113           JUNCTION      0.00   443.68     0  02:42           0        7.08       0.122
  WS02006115           JUNCTION      0.00   446.42     0  02:42           0        7.06       0.262
  WS02006116           JUNCTION      0.00   445.18     0  02:44           0        7.04       0.251
  WS02006230           JUNCTION     10.28   385.85     0  06:48        0.29        6.38       0.197
  WS02006231           JUNCTION      0.00   375.62     0  06:47           0         6.1       0.154
  WS02006232           JUNCTION      0.00   375.64     0  06:47           0        6.11       0.243
  WS02006234           JUNCTION      0.00   375.93     0  06:44           0        6.12       0.104
  WS02006235           JUNCTION      0.00   376.18     0  06:44           0        6.16       0.161
  WS02006238           JUNCTION      0.00   319.70     0  07:11           0        4.14       0.160
  WS02006240           JUNCTION      0.00   320.87     0  06:41           0        4.12       0.239
  WS02006242           JUNCTION      0.00   323.82     0  06:41           0        4.13       0.300
  WS02006243           JUNCTION      0.00   326.99     0  06:41           0        4.12       0.093
  WS02006245           JUNCTION      0.00   328.75     0  06:40           0        4.13       0.175
  WS02006247           JUNCTION      0.00   332.07     0  06:40           0        4.13       0.143
  WS02006248           JUNCTION      0.00   335.65     0  06:40           0        4.14       0.079
  WS02006249           JUNCTION      0.00   400.56     0  06:52           0         4.3       0.215
  WS02006239           JUNCTION      0.00   319.68     0  07:11           0        4.13       0.237
  WS02006251           JUNCTION      0.08   400.63     0  06:41     0.00217        4.33       0.181
  WS02006252           JUNCTION      0.00   400.00     0  06:40           0         4.2       0.007
  WS02006253           JUNCTION      1.06    29.58     0  02:20     0.00264       0.127       2.307
  WS02006256           JUNCTION      0.00   473.12     0  03:01           0        4.68       0.058
  WS02004138           JUNCTION      0.00   380.00     0  02:00           0        8.01       0.058
  WS02004407           JUNCTION      0.00   444.46     0  02:47           0        6.91       0.099
  WS02006228           JUNCTION      0.00   442.21     0  02:42           0         7.1       0.199
  WS02006229           JUNCTION      0.00   442.13     0  02:42           0        7.11       0.163
  WS02006280           JUNCTION      0.00   156.13     0  02:21           0       0.745       0.009
  WS02006284           JUNCTION      0.10   156.13     0  02:21      0.0027       0.746       0.147
  WS02006287           JUNCTION      0.00   156.05     0  02:21           0       0.744       0.096
  WSF200               JUNCTION      0.00   443.17     0  02:51           0        6.79       0.059
  HS02004901           JUNCTION      8.52     8.52     0  02:12      0.0245      0.0246       7.685
  HS02004881           JUNCTION      3.43    28.78     0  02:20      0.0107       0.111       0.232
  HS02004876           JUNCTION      5.41    25.63     0  02:20      0.0204       0.101       0.519
  HS02004870           JUNCTION      6.02    20.35     0  02:20      0.0202      0.0807       0.131
  HS02004862           JUNCTION      4.95    14.75     0  02:21      0.0257      0.0607       0.277
  HS02004856           JUNCTION      4.46     9.84     0  02:20      0.0152      0.0364       4.102
  HS02004852           JUNCTION      0.00     5.68     0  02:20           0      0.0213       0.231
  HS02004848           JUNCTION      9.71     9.71     0  02:23      0.0478      0.0478       0.090
  HS02004842           JUNCTION      0.00     4.47     0  00:03           0      0.0396      48.964
  HS02004837           JUNCTION     15.96    19.76     0  02:19       0.214       0.241       0.339
  HS02004830           JUNCTION      0.15    19.90     0  02:20     0.00423       0.231       0.536
  HS02004824           JUNCTION     10.88    30.64     0  02:23      0.0627       0.293       0.184
  HS02004817           JUNCTION      0.60    31.24     0  02:24      0.0169       0.309       5.700
  HS02004807           JUNCTION     11.35    41.54     0  02:22      0.0371       0.329       1.299
  HS02004802           JUNCTION      0.00    41.66     0  02:23           0       0.325       1.267
  HS02004799           JUNCTION      8.71    97.53     0  02:18        0.03       0.375       0.604
  HS02004792           JUNCTION     39.15    89.05     0  02:18       0.133       0.345       0.120
  HS02004788           JUNCTION     13.47    51.87     0  02:19      0.0888       0.213       0.185
  HS02004785           JUNCTION      0.15    38.85     0  02:19     0.00423       0.126       0.381
  HS02004777           JUNCTION      0.03    39.29     0  02:16    0.000846       0.127       4.259
  HS02004770           JUNCTION     33.14    40.50     0  02:14       0.105       0.127       2.492
  HS02004480           JUNCTION      0.00   114.94     0  02:20           0       0.435       0.162
  HS02004479           JUNCTION      0.00    17.76     0  02:21           0      0.0725       1.015
  HS02004478           JUNCTION      0.00   156.05     0  02:21           0       0.745       0.086
  YS02001745           JUNCTION     53.30    53.30     0  03:01       0.606       0.606       0.116
  YS02001748           JUNCTION      0.04   126.40     0  04:04     0.00127       0.742      -0.056
  YS02001751           JUNCTION      0.01   208.02     0  04:02     0.00031       0.795       0.276
  YS02001754           JUNCTION      0.26   253.98     0  03:56     0.00733       0.861       1.210
  YS02001762           JUNCTION      0.00   113.00     0  03:53           0       0.712       1.999
  YS02001765           JUNCTION      0.00   125.27     0  03:20           0       0.707       2.123
  YS02001767           JUNCTION      0.54   139.00     0  04:04      0.0151       0.712       2.771
  YS02001770           JUNCTION     68.97    83.99     0  04:01       0.717       0.816       2.068
  YS02001774           JUNCTION      0.00    64.11     0  04:07           0       0.201       8.006
  YS02001779           JUNCTION      0.01    59.27     0  04:07    0.000141      0.0881       6.301
  YS02001882           JUNCTION      0.00     3.07     0  02:10           0     0.00416      58.960
  YS02001884           JUNCTION      0.00     8.87     0  02:10           0      0.0168      37.514
  YS02001759           JUNCTION     67.51   167.93     0  03:10       0.672        1.36       1.187
  YS02001887           JUNCTION     89.38    89.38     0  02:47       0.812        0.82       0.843
  YS02001890           JUNCTION      0.00    88.93     0  02:50           0       0.799       0.950
  YS02001898           JUNCTION      0.00    88.56     0  02:52           0       0.788       0.251
  YS02001901           JUNCTION      0.00    88.52     0  02:53           0       0.788       0.666
  YS02001904           JUNCTION      0.00    88.18     0  02:54           0       0.788       0.620
  YS02001907           JUNCTION      0.00   160.40     0  03:02           0        1.68       1.302
  YS02001910           JUNCTION      0.00    72.82     0  03:00           0         0.9       1.097
  YS02001915           JUNCTION     47.94    72.57     0  03:01       0.521       0.905       0.466
  YS02001918           JUNCTION      0.00    24.83     0  03:03           0       0.384       0.249
  YS02001619           JUNCTION     46.56    46.56     0  03:01       0.513       0.513       0.125
  YS02001629           JUNCTION      0.00    69.86     0  04:05           0       0.498       1.140
  YS02001641           JUNCTION      0.00   108.09     0  03:25           0        1.06       1.206
  YS02001644           JUNCTION     50.59   159.09     0  03:25       0.581        1.62       0.957
  YS02001652           JUNCTION      0.00   133.53     0  04:02           0       0.721       1.289
  YS02001655           JUNCTION      0.15   152.64     0  04:12     0.00434       0.692       0.486
  YS02001920           JUNCTION      2.87    24.85     0  03:02      0.0809       0.386       0.482
  YS02001923           JUNCTION      0.04    21.98     0  03:02     0.00106       0.306       0.084
  YS02001926           JUNCTION      0.05    22.00     0  03:01     0.00147       0.306       0.610
  YS02001929           JUNCTION     21.96    21.96     0  03:01       0.305       0.305       0.080
  YS02001658           JUNCTION      0.00    90.83     0  04:26           0       0.682       0.055
  YS02001661           JUNCTION      0.00    63.15     0  02:49           0        0.59       0.124
  YS02001664           JUNCTION     63.15    63.15     0  02:49        0.59        0.59       0.027
  YS02001622           JUNCTION      0.00    51.15     0  04:07           0       0.514       0.530
  YS02001633           JUNCTION     51.43   105.50     0  03:08       0.598        1.08       1.715
  YS02001649           JUNCTION      0.00   258.61     0  03:06           0        2.28       1.041
  YS02001757           JUNCTION      0.00   456.55     0  03:29           0        4.23       1.620
  YS02001895           JUNCTION      0.00    88.64     0  02:52           0       0.792       0.433
  YS02001625           JUNCTION      0.00    64.39     0  04:39           0       0.513       3.049
  YS02163301           JUNCTION      0.00    70.43     0  04:04           0       0.498       2.516
  YS02163601           JUNCTION      0.11   116.22     0  04:17      0.0031        1.06       1.870
  YS02164001           JUNCTION      0.00   106.23     0  03:06           0        1.05       1.130
  YS02001647           JUNCTION      0.00   156.55     0  03:05           0        1.59       0.783
  YSB1154              JUNCTION      9.61     9.61     0  02:17      0.0364      0.0378       3.975
  YSB6556              JUNCTION      0.00     9.55     0  02:19           0      0.0388       3.314
  YSB1174              JUNCTION      9.73     9.73     0  02:11      0.0266      0.0276       4.885
  YSB1171              JUNCTION      0.00    17.76     0  02:19           0      0.0719       9.632
  YS02006553           JUNCTION      0.00   160.65     0  03:02           0        1.67       0.847
  YS02006561           JUNCTION      0.00   235.24     0  02:59           0        2.36       0.025
  YS02006556           JUNCTION      0.00   160.87     0  03:03           0        1.67       0.609
  YS02006558           JUNCTION     75.61   235.26     0  02:59       0.739        2.38       0.185
  YS02001783           JUNCTION      0.00   235.24     0  02:59           0        2.36       0.057
  YS02001784           JUNCTION      1.06   236.30     0  02:59      0.0299        2.38       0.096
  YS02001786           JUNCTION      0.06   236.35     0  02:59     0.00159        2.38       0.093
  YS02001788           JUNCTION      0.07   236.41     0  03:00       0.002        2.38       0.053
  YS02001790           JUNCTION      0.15   236.56     0  03:00     0.00437        2.39       0.067
  YS02001791           JUNCTION      0.00   236.56     0  03:00           0        2.38       0.033
  YS02001793           JUNCTION      0.00   236.56     0  03:00           0        2.38       0.015
  WS02004139           JUNCTION      0.32   380.33     0  02:00     0.00905        8.01       0.474
  WSC                  OUTFALL       0.00   848.26     0  02:55           0        15.2       0.000
  3                    OUTFALL       0.00   365.48     0  02:59           0        2.62       0.000
  4                    OUTFALL       0.00    82.42     0  06:50           0       0.159       0.000
  5                    OUTFALL       0.00     0.00     0  00:00           0           0       0.000 ltr
  JK-storage           STORAGE       0.00   236.56     0  03:01           0        2.53     -45.843
  CC-storage           STORAGE       0.00   385.88     0  03:03           0        3.96      -5.592
  XR-storage           STORAGE     286.77   286.77     0  02:58        6.65        7.25      -9.445
  
  
  **********************
  Node Surcharge Summary
  **********************
  
  Surcharging occurs when water rises above the top of the highest conduit.
  ---------------------------------------------------------------------
                                               Max. Height   Min. Depth
                                   Hours       Above Crown    Below Rim
  Node                 Type      Surcharged         Meters       Meters
  ---------------------------------------------------------------------
  WS02006109           JUNCTION        0.64          0.047        1.773
  WS02006232           JUNCTION        0.56          0.020        1.460
  WS02006238           JUNCTION        0.50          0.008        1.422
  WS02006242           JUNCTION        0.48          0.007        0.813
  WS02006252           JUNCTION        0.73          0.184        0.916
  WS02006228           JUNCTION        0.61          0.052        2.148
  YS02001757           JUNCTION        2.96          0.093        1.117
  
  
  *********************
  Node Flooding Summary
  *********************
  
  No nodes were flooded.
  
  
  **********************
  Storage Volume Summary
  **********************
  
  --------------------------------------------------------------------------------------------------
                         Average     Avg  Evap Exfil       Maximum     Max    Time of Max    Maximum
                          Volume    Pcnt  Pcnt  Pcnt        Volume    Pcnt     Occurrence    Outflow
  Storage Unit           1000 m3    Full  Loss  Loss       1000 m3    Full    days hr:min        LPS
  --------------------------------------------------------------------------------------------------
  JK-storage               0.002       1     0     0         0.151      52       0  00:00     473.12
  CC-storage               0.420       3     0     0         0.810       5       0  04:41     400.00
  XR-storage               0.101      11     0     0         0.669      72       0  01:50     380.00
  
  
  ***********************
  Outfall Loading Summary
  ***********************
  
  -----------------------------------------------------------
                         Flow       Avg       Max       Total
                         Freq      Flow      Flow      Volume
  Outfall Node           Pcnt       LPS       LPS    10^6 ltr
  -----------------------------------------------------------
  WSC                   99.99    639.81    848.26      15.239
  3                     84.41    146.53    365.48       2.625
  4                     12.66     67.68     82.42       0.159
  5                      0.00      0.00      0.00       0.000
  -----------------------------------------------------------
  System                49.27    854.03   1212.88      18.022
  
  
  ********************
  Link Flow Summary
  ********************
  
  -----------------------------------------------------------------------------
                                 Maximum  Time of Max   Maximum    Max/    Max/
                                  |Flow|   Occurrence   |Veloc|    Full    Full
  Link                 Type          LPS  days hr:min     m/sec    Flow   Depth
  -----------------------------------------------------------------------------
  WS02003066WSF200     CONDUIT    443.17     0  02:51      2.71    0.07    0.20
  WS02006287WS02006284 CONDUIT    156.03     0  02:21      1.47    0.07    0.19
  WS02006284WS02006280 CONDUIT    156.13     0  02:21      1.72    0.07    0.17
  WS02006280WS02006229 CONDUIT    156.13     0  02:21      2.76    0.03    0.12
  WS02006229WS02006228 CONDUIT    442.21     0  02:42      0.88    1.46    1.00
  WS02006256WS02006235 CONDUIT    166.25     0  00:01      2.58    1.76    1.00
  WS02006253WS02006251 CONDUIT     64.70     0  07:11      0.44    0.19    0.89
  WS02006252WS02006251 CONDUIT    400.09     0  06:40      3.18    1.47    1.00
  WS02006251WS02006249 CONDUIT    400.56     0  06:52      1.15    1.16    0.86
  WS02006249WS02006248 CONDUIT    335.65     0  06:40      1.08    1.84    0.81
  WS02006248WS02006247 CONDUIT    332.07     0  06:40      1.03    0.72    0.84
  WS02006247WS02006245 CONDUIT    328.75     0  06:40      0.99    2.61    0.87
  WS02006245WS02006243 CONDUIT    326.99     0  06:41      0.99    0.97    0.88
  WS02006243WS02006242 CONDUIT    323.82     0  06:41      0.87    0.69    0.95
  WS02006242WS02006240 CONDUIT    320.87     0  06:41      0.85    1.27    0.97
  WS02006240WS02006239 CONDUIT    319.68     0  07:11      0.86    1.01    0.95
  WS02006239WS02006238 CONDUIT    319.70     0  07:11      0.83    1.02    1.00
  WS02006238WS02006235 CONDUIT    319.70     0  07:12      1.25    0.71    1.00
  WS02006235WS02006234 CONDUIT    375.93     0  06:44      1.01    3.97    0.95
  WS02006234WS02006232 CONDUIT    375.64     0  06:47      1.13    0.76    0.97
  WS02006232WS02006231 CONDUIT    375.62     0  06:47      1.03    0.79    0.90
  WS02006231WS02006230 CONDUIT    375.57     0  06:48      1.32    5.70    0.75
  WS02006230WS02006229 CONDUIT    385.83     0  06:49      1.00    8.59    1.00
  WS02006228WS02006109 CONDUIT    442.22     0  02:42      0.88    1.93    1.00
  WS02006116WS02004401 CONDUIT    444.81     0  02:45      0.73    0.61    0.77
  WS02006115WS02006116 CONDUIT    445.18     0  02:44      0.79    0.57    0.68
  WS02006113WS02006111 CONDUIT    455.75     0  02:43      2.30    0.55    0.42
  WS02006112WS02006115 CONDUIT    446.42     0  02:42      0.66    0.26    0.81
  WS02006111WS02006112 CONDUIT    445.86     0  02:42      1.32    0.21    0.66
  WS02006110WS02006113 CONDUIT    443.68     0  02:42      1.09    0.40    0.75
  WS02006109WS02006110 CONDUIT    443.45     0  02:42      0.89    0.85    0.96
  WS02004411WS02004412 CONDUIT    443.33     0  02:50      0.84    0.63    0.64
  WS02004401WS02004402 CONDUIT    444.46     0  02:46      0.77    0.53    0.79
  WS02004413WS02003067 CONDUIT    443.17     0  02:51      1.00    0.19    0.55
  WS02004412WS02004413 CONDUIT    443.20     0  02:50      0.73    0.30    0.72
  WS02004410WS02004411 CONDUIT    443.56     0  02:49      0.86    0.61    0.62
  WS02004409WS02004410 CONDUIT    443.94     0  02:48      0.89    0.57    0.61
  WS02004407WS02004409 CONDUIT    444.44     0  02:48      1.37    0.16    0.43
  WS02004406WS02004407 CONDUIT    444.46     0  02:47      0.93    0.20    0.59
  WS02004405WS02004406 CONDUIT    444.49     0  02:47      0.66    0.88    0.90
  WS02004404WS02004405 CONDUIT    444.44     0  02:47      0.84    4.35    0.90
  WS02004403WS02004404 CONDUIT    444.31     0  02:47      0.74    0.32    0.86
  WS02004402WS02004403 CONDUIT    444.40     0  02:46      0.75    0.64    0.82
  WS02004139WS02001211 CONDUIT    380.50     0  03:19      0.69    0.48    0.59
  WS02004138WS02004139 CONDUIT    380.01     0  02:00      2.94    0.08    0.44
  WS02003067WS02003066 CONDUIT    443.17     0  02:51      1.08    0.14    0.39
  WS02001213WS02003059 CONDUIT    388.61     0  03:26      0.68    0.64    0.75
  WS02001212WS02001213 CONDUIT    388.27     0  03:19      1.32    0.60    0.46
  WS02001211WS02001212 CONDUIT    388.06     0  03:18      0.78    0.30    0.64
  WS02003072WS02003073 CONDUIT    846.44     0  02:54      1.66    1.83    0.46
  WS02003069WS02003072 CONDUIT    846.44     0  02:54      1.57    0.41    0.48
  WS02003060WS02003069 CONDUIT    846.13     0  02:53      1.82    0.33    0.43
  WS02003059WS02003060 CONDUIT    389.09     0  03:23      0.93    0.25    0.64
  HS02004901HS02004770 CONDUIT      7.66     0  02:17      0.04    0.03    0.29
  HS02004876HS02004881 CONDUIT     25.66     0  02:21      0.46    0.27    0.08
  HS02004870HS02004876 CONDUIT     20.33     0  02:21      0.32    0.01    0.09
  HS02004842HS02004848 CONDUIT      4.35     0  02:33      0.02    0.00    0.27
  HS02004837HS02004842 CONDUIT      4.48     0  02:34      0.41    0.00    0.28
  HS02004830HS02004837 CONDUIT     19.75     0  02:20      0.41    0.02    0.07
  HS02004824HS02004830 CONDUIT     19.90     0  02:21      0.45    0.03    0.06
  HS02004817HS02004824 CONDUIT     30.64     0  02:24      0.17    0.01    0.38
  HS02004770HS02004777 CONDUIT     39.26     0  02:16      0.19    0.07    0.30
  HS02004799HS02004480 CONDUIT     97.34     0  02:19      0.51    0.12    0.27
  HS02004792HS02004799 CONDUIT     89.01     0  02:19      0.59    0.05    0.21
  HS02004788HS02004792 CONDUIT     51.82     0  02:20      0.75    0.03    0.10
  HS02004785HS02004788 CONDUIT     38.72     0  02:20      0.45    0.29    0.12
  HS02004777HS02004785 CONDUIT     38.70     0  02:19      0.23    0.05    0.24
  HS02004480HS02004478 CONDUIT    114.91     0  02:20      0.85    0.48    0.19
  HS02004479HS02004480 CONDUIT     17.91     0  02:22      0.16    0.02    0.27
  HS02004862HS02004870 CONDUIT     14.71     0  02:22      0.41    0.02    0.05
  HS02004848HS02004852 CONDUIT      5.68     0  02:20      0.27    0.01    0.03
  HS02004856HS02004862 CONDUIT      9.81     0  02:21      0.30    0.01    0.05
  HS02004852HS02004856 CONDUIT      5.64     0  02:22      0.10    0.01    0.08
  HS02004802HS02004478 CONDUIT     41.87     0  02:24      0.26    0.04    0.23
  HS02004478WS02006287 CONDUIT    156.05     0  02:21      1.16    0.04    0.15
  HS02004817HS02004807 CONDUIT     31.57     0  02:26      0.09    0.02    0.48
  HS02004807HS02004802 CONDUIT     41.66     0  02:23      0.22    0.08    0.27
  YS02001759YS02001757 CONDUIT    178.69     0  03:33      0.23    0.13    0.99
  YS02001762YS02001759 CONDUIT    117.92     0  03:35      0.17    0.14    0.96
  YS02001765YS02001762 CONDUIT    112.20     0  03:32      0.22    0.11    0.92
  YS02001770YS02001767 CONDUIT    106.64     0  04:08      0.33    0.42    0.84
  YS02001774YS02001770 CONDUIT     64.11     0  04:07      0.12    0.04    0.86
  YS02001779YS02001774 CONDUIT     59.27     0  04:07      0.09    0.03    0.78
  YS02001649YS02001757 CONDUIT    278.07     0  03:29      0.36    0.17    0.97
  YS02001767YS02001765 CONDUIT    125.27     0  03:20      0.26    0.16    0.87
  YS02006561YS02001783 CONDUIT    235.24     0  02:59      1.65    0.12    0.33
  YS02001783YS02001784 CONDUIT    235.24     0  02:59      1.12    0.32    0.43
  YS02001784YS02001785 CONDUIT    236.29     0  02:59      1.18    0.55    0.42
  YS02001788YS02001790 CONDUIT    236.41     0  03:00      1.74    0.17    0.31
  YS02001790YS02001791 CONDUIT    236.56     0  03:00      2.00    0.26    0.29
  YS02001791YS02001793 CONDUIT    236.56     0  03:00      3.62    0.10    0.19
  YS02001910YS02001907 CONDUIT     72.85     0  03:01      0.49    0.04    0.67
  YS02001786YS02001788 CONDUIT    236.34     0  03:00      1.60    0.46    0.33
  YS02001915YS02001910 CONDUIT     72.82     0  03:00      0.44    0.04    0.46
  YS02001918YS02001915 CONDUIT     24.82     0  03:04      0.44    0.01    0.22
  YS02001923YS02001920 CONDUIT     21.98     0  03:02      0.38    0.01    0.13
  YS02001926YS02001923 CONDUIT     21.94     0  03:02      0.43    0.03    0.12
  YS02001929YS02001926 CONDUIT     21.95     0  03:01      0.45    0.01    0.11
  YS02001920YS02001918 CONDUIT     24.83     0  03:03      0.40    0.02    0.13
  YS02001629YS02163301 CONDUIT     70.43     0  04:04      0.11    0.09    0.81
  YS02001619YS02001622 CONDUIT     51.15     0  04:07      0.60    0.08    0.42
  YS02001622YS02001625 CONDUIT     64.39     0  04:39      0.21    0.03    0.57
  YS02001625YS02001629 CONDUIT     69.86     0  04:05      0.21    0.03    0.57
  YS02163301YS02001633 CONDUIT     57.37     0  03:26      0.10    0.05    0.85
  YS02163601YS02164001 CONDUIT    106.23     0  03:06      0.15    0.09    0.90
  YS02164001YS02001641 CONDUIT    108.09     0  03:25      0.15    0.15    0.89
  YS02001641YS02001644 CONDUIT    115.99     0  03:25      0.16    0.37    0.91
  YS02001647YS02001649 CONDUIT    166.16     0  03:10      0.25    0.09    0.83
  YS02006553YS02006556 CONDUIT    160.87     0  03:03      0.25    0.14    0.76
  YS02006556YS02006558 CONDUIT    161.03     0  03:03      0.24    0.13    0.79
  YSB6556YSB1171       CONDUIT      9.66     0  02:22      0.05    0.01    0.54
  YS02001907YS02006553 CONDUIT    160.65     0  03:02      0.21    0.19    0.86
  YS02006558YS02006561 CONDUIT    235.24     0  02:59      2.13    0.52    0.41
  YS02001633YS02163601 CONDUIT    116.11     0  04:17      0.16    0.12    0.89
  YS02001644YS02001647 CONDUIT    156.55     0  03:05      0.24    0.09    0.82
  YS02001745YS02001748 CONDUIT     53.29     0  03:01      1.32    0.02    0.15
  YS02001748YS02001751 CONDUIT    172.06     0  04:10      1.01    0.09    0.36
  YS02001751YS02001754 CONDUIT    155.28     0  03:51      0.92    0.07    0.60
  YS02001754YS02001757 CONDUIT    198.19     0  03:58      0.33    0.08    0.90
  YS02001882YS02001884 CONDUIT      3.07     0  02:10      0.06    0.00    0.40
  YS02001884YS02001887 CONDUIT      8.87     0  02:10      0.06    0.01    0.49
  YS02001890YS02001895 CONDUIT     88.64     0  02:52      0.25    0.04    0.46
  YS02001895YS02001898 CONDUIT     88.56     0  02:52      0.46    0.15    0.33
  YS02001898YS02001901 CONDUIT     88.52     0  02:53      0.30    0.06    0.41
  YS02001901YS02001904 CONDUIT     88.18     0  02:54      0.25    0.14    0.46
  YS02001904YS02001907 CONDUIT     88.28     0  02:53      0.17    0.03    0.62
  YS02001887YS02001890 CONDUIT     88.93     0  02:50      0.20    0.15    0.55
  YS02001652YS02001649 CONDUIT    134.04     0  04:03      0.31    0.07    0.86
  YS02001655YS02001652 CONDUIT    113.59     0  03:27      0.99    0.06    0.63
  YS02001658YS02001655 CONDUIT    146.59     0  04:08      1.17    0.06    0.33
  YS02001661YS02001658 CONDUIT     63.15     0  02:49      1.33    0.02    0.15
  YS02001664YS02001661 CONDUIT     63.15     0  02:49      0.97    0.02    0.14
  YSB1154YSB6556       CONDUIT      9.55     0  02:19      0.19    0.02    0.43
  YSB1174YSB1171       CONDUIT      8.95     0  02:13      0.05    0.01    0.54
  YSB1171HS02004479    CONDUIT     17.76     0  02:21      0.54    0.01    0.41
  HS02004881HS02006253 CONDUIT     28.77     0  02:20      1.48    0.01    0.21
  YS02001793JiankangQianchi CONDUIT    236.56     0  03:01     12.17    0.02    0.50
  YS02001757CaochengTiaoxuchi CONDUIT    385.88     0  03:03      0.89    0.17    0.65
  WSF200WS02003060     CONDUIT    443.22     0  02:51      1.47    0.10    0.31
  1                    CONDUIT    848.26     0  02:55      3.18    0.30    0.37
  2                    CONDUIT     82.42     0  06:50      4.59    0.20    0.30
  3                    CONDUIT    365.48     0  02:59      9.15    0.58    0.55
  4                    CONDUIT      0.00     0  00:00      0.00    0.00    0.00
  CC-Pump-1            PUMP       200.00     0  04:00              1.00
  CC-Pump-2            PUMP       200.00     0  02:30              1.00
  JK-Pump-1            PUMP       300.00     0  00:00              1.00
  JK-Pump-2            PUMP       236.56     0  03:01              0.79
  XR-Pump-1            PUMP        95.00     0  00:00              1.00
  XR-Pump-2            PUMP        95.00     0  02:00              1.00
  XR-Pump-3            PUMP        95.00     0  00:00              1.00
  XR-Pump-4            PUMP        95.00     0  02:00              1.00
  
  
  ***************************
  Flow Classification Summary
  ***************************
  
  -------------------------------------------------------------------------------------
                      Adjusted    ---------- Fraction of Time in Flow Class ---------- 
                       /Actual         Up    Down  Sub   Sup   Up    Down  Norm  Inlet 
  Conduit               Length    Dry  Dry   Dry   Crit  Crit  Crit  Crit  Ltd   Ctrl  
  -------------------------------------------------------------------------------------
  WS02003066WSF200        1.00   0.06  0.00  0.00  0.00  0.94  0.00  0.00  0.76  0.00
  WS02006287WS02006284    1.00   0.04  0.01  0.00  0.71  0.24  0.00  0.00  0.78  0.00
  WS02006284WS02006280    1.00   0.05  0.00  0.00  0.00  0.00  0.00  0.95  0.00  0.00
  WS02006280WS02006229    1.00   0.05  0.00  0.00  0.00  0.00  0.00  0.95  0.00  0.00
  WS02006229WS02006228    1.00   0.00  0.00  0.00  0.99  0.00  0.00  0.01  0.00  0.00
  WS02006256WS02006235    1.00   0.00  0.00  0.00  1.00  0.00  0.00  0.00  0.00  0.00
  WS02006253WS02006251    1.00   0.03  0.01  0.00  0.96  0.00  0.00  0.00  0.00  0.00
  WS02006252WS02006251    1.00   0.09  0.00  0.00  0.00  0.00  0.91  0.00  0.00  0.00
  WS02006251WS02006249    1.00   0.00  0.00  0.00  1.00  0.00  0.00  0.00  0.29  0.00
  WS02006249WS02006248    1.00   0.00  0.02  0.00  0.90  0.00  0.08  0.00  0.00  0.00
  WS02006248WS02006247    1.00   0.02  0.00  0.00  0.98  0.00  0.00  0.00  0.18  0.00
  WS02006247WS02006245    1.00   0.02  0.00  0.00  0.98  0.00  0.00  0.00  0.00  0.00
  WS02006245WS02006243    1.00   0.01  0.00  0.00  0.94  0.00  0.00  0.04  0.01  0.00
  WS02006243WS02006242    1.00   0.01  0.00  0.00  0.99  0.00  0.00  0.00  0.27  0.00
  WS02006242WS02006240    1.00   0.00  0.00  0.00  1.00  0.00  0.00  0.00  0.00  0.00
  WS02006240WS02006239    1.00   0.00  0.00  0.00  0.95  0.00  0.00  0.04  0.01  0.00
  WS02006239WS02006238    1.00   0.00  0.00  0.00  1.00  0.00  0.00  0.00  0.00  0.00
  WS02006238WS02006235    1.00   0.00  0.00  0.00  1.00  0.00  0.00  0.00  0.00  0.00
  WS02006235WS02006234    1.00   0.00  0.00  0.00  0.95  0.00  0.05  0.00  0.00  0.00
  WS02006234WS02006232    1.00   0.00  0.00  0.00  1.00  0.00  0.00  0.00  0.17  0.00
  WS02006232WS02006231    1.00   0.00  0.00  0.00  0.99  0.00  0.00  0.00  0.00  0.00
  WS02006231WS02006230    1.00   0.00  0.00  0.00  0.40  0.00  0.60  0.00  0.00  0.00
  WS02006230WS02006229    1.00   0.00  0.00  0.00  0.99  0.00  0.00  0.01  0.01  0.00
  WS02006228WS02006109    1.00   0.00  0.00  0.00  1.00  0.00  0.00  0.00  0.00  0.00
  WS02006116WS02004401    1.00   0.03  0.00  0.00  0.97  0.00  0.00  0.00  0.00  0.00
  WS02006115WS02006116    1.00   0.03  0.00  0.00  0.97  0.00  0.00  0.01  0.00  0.00
  WS02006113WS02006111    1.00   0.02  0.00  0.00  0.00  0.98  0.00  0.00  0.10  0.00
  WS02006112WS02006115    1.00   0.02  0.00  0.00  0.97  0.00  0.00  0.00  0.00  0.00
  WS02006111WS02006112    1.00   0.02  0.00  0.00  0.98  0.00  0.00  0.00  0.98  0.00
  WS02006110WS02006113    1.00   0.01  0.01  0.00  0.98  0.00  0.00  0.00  0.00  0.00
  WS02006109WS02006110    1.00   0.00  0.01  0.00  0.98  0.00  0.01  0.00  0.00  0.00
  WS02004411WS02004412    1.00   0.04  0.00  0.00  0.96  0.00  0.00  0.00  0.00  0.00
  WS02004401WS02004402    1.00   0.03  0.00  0.00  0.97  0.00  0.00  0.00  0.00  0.00
  WS02004413WS02003067    1.00   0.04  0.01  0.00  0.00  0.00  0.94  0.00  0.00  0.00
  WS02004412WS02004413    1.00   0.04  0.00  0.00  0.96  0.00  0.00  0.00  0.03  0.00
  WS02004410WS02004411    1.00   0.04  0.00  0.00  0.96  0.00  0.00  0.00  0.04  0.00
  WS02004409WS02004410    1.00   0.04  0.00  0.00  0.96  0.00  0.00  0.00  0.04  0.00
  WS02004407WS02004409    1.00   0.04  0.00  0.00  0.96  0.00  0.00  0.00  0.89  0.00
  WS02004406WS02004407    1.00   0.00  0.04  0.00  0.96  0.00  0.00  0.00  0.00  0.00
  WS02004405WS02004406    1.00   0.00  0.00  0.00  1.00  0.00  0.00  0.00  0.00  0.00
  WS02004404WS02004405    1.00   0.00  0.00  0.00  1.00  0.00  0.00  0.00  0.00  0.00
  WS02004403WS02004404    1.00   0.00  0.03  0.00  0.97  0.00  0.00  0.00  0.01  0.00
  WS02004402WS02004403    1.00   0.03  0.00  0.00  0.97  0.00  0.00  0.00  0.00  0.00
  WS02004139WS02001211    1.00   0.00  0.00  0.00  1.00  0.00  0.00  0.00  0.00  0.00
  WS02004138WS02004139    1.00   0.00  0.00  0.00  0.99  0.01  0.00  0.00  1.00  0.00
  WS02003067WS02003066    1.00   0.06  0.00  0.00  0.94  0.00  0.00  0.00  0.00  0.00
  WS02001213WS02003059    1.00   0.00  0.00  0.00  0.99  0.00  0.00  0.00  0.00  0.00
  WS02001212WS02001213    1.00   0.00  0.00  0.00  0.93  0.00  0.06  0.00  0.00  0.00
  WS02001211WS02001212    1.00   0.00  0.00  0.00  1.00  0.00  0.00  0.00  0.00  0.00
  WS02003072WS02003073    1.00   0.00  0.00  0.00  0.00  0.00  0.00  1.00  0.00  0.00
  WS02003069WS02003072    1.00   0.00  0.00  0.00  0.99  0.01  0.00  0.00  0.23  0.00
  WS02003060WS02003069    1.00   0.00  0.00  0.00  0.99  0.01  0.00  0.00  0.20  0.00
  WS02003059WS02003060    1.00   0.00  0.00  0.00  1.00  0.00  0.00  0.00  0.01  0.00
  HS02004901HS02004770    1.00   0.04  0.00  0.00  0.96  0.00  0.00  0.00  0.03  0.00
  HS02004876HS02004881    1.00   0.02  0.00  0.00  0.98  0.00  0.00  0.00  0.00  0.00
  HS02004870HS02004876    1.00   0.01  0.00  0.00  0.99  0.00  0.00  0.00  0.95  0.00
  HS02004842HS02004848    1.00   0.00  0.05  0.00  0.95  0.00  0.00  0.00  0.70  0.00
  HS02004837HS02004842    1.00   0.00  0.00  0.00  0.99  0.01  0.00  0.00  0.11  0.00
  HS02004830HS02004837    1.00   0.00  0.00  0.00  1.00  0.00  0.00  0.00  0.99  0.00
  HS02004824HS02004830    1.00   0.00  0.00  0.00  1.00  0.00  0.00  0.00  0.00  0.00
  HS02004817HS02004824    1.00   0.00  0.00  0.00  1.00  0.00  0.00  0.00  1.00  0.00
  HS02004770HS02004777    1.00   0.00  0.04  0.00  0.96  0.00  0.00  0.00  0.07  0.00
  HS02004799HS02004480    1.00   0.00  0.02  0.00  0.94  0.00  0.03  0.00  0.00  0.00
  HS02004792HS02004799    1.00   0.00  0.00  0.00  0.99  0.01  0.00  0.00  0.98  0.00
  HS02004788HS02004792    1.00   0.00  0.00  0.00  0.99  0.01  0.00  0.00  0.98  0.00
  HS02004785HS02004788    1.00   0.00  0.00  0.00  1.00  0.00  0.00  0.00  0.00  0.00
  HS02004777HS02004785    1.00   0.00  0.00  0.00  1.00  0.00  0.00  0.00  0.21  0.00
  HS02004480HS02004478    1.00   0.05  0.00  0.00  0.74  0.00  0.00  0.21  0.00  0.00
  HS02004479HS02004480    1.00   0.03  0.00  0.00  0.97  0.00  0.00  0.00  0.16  0.00
  HS02004862HS02004870    1.00   0.00  0.00  0.00  1.00  0.00  0.00  0.00  0.05  0.00
  HS02004848HS02004852    1.00   0.05  0.00  0.00  0.95  0.00  0.00  0.00  0.70  0.00
  HS02004856HS02004862    1.00   0.00  0.07  0.00  0.93  0.00  0.00  0.00  0.74  0.00
  HS02004852HS02004856    1.00   0.04  0.01  0.00  0.95  0.00  0.00  0.00  0.82  0.00
  HS02004802HS02004478    1.00   0.05  0.01  0.00  0.95  0.00  0.00  0.00  0.00  0.00
  HS02004478WS02006287    1.00   0.05  0.00  0.00  0.92  0.03  0.00  0.00  0.81  0.00
  HS02004817HS02004807    1.00   0.00  0.04  0.00  0.96  0.00  0.00  0.00  0.00  0.00
  HS02004807HS02004802    1.00   0.04  0.00  0.00  0.95  0.00  0.00  0.00  0.01  0.00
  YS02001759YS02001757    1.00   0.00  0.00  0.00  1.00  0.00  0.00  0.00  0.17  0.00
  YS02001762YS02001759    1.00   0.00  0.00  0.00  1.00  0.00  0.00  0.00  0.05  0.00
  YS02001765YS02001762    1.00   0.00  0.00  0.00  1.00  0.00  0.00  0.00  0.23  0.00
  YS02001770YS02001767    1.00   0.00  0.00  0.00  1.00  0.00  0.00  0.00  0.00  0.00
  YS02001774YS02001770    1.00   0.00  0.05  0.00  0.95  0.00  0.00  0.00  0.07  0.00
  YS02001779YS02001774    1.00   0.00  0.00  0.00  1.00  0.00  0.00  0.00  0.27  0.00
  YS02001649YS02001757    1.00   0.00  0.00  0.00  1.00  0.00  0.00  0.00  0.19  0.00
  YS02001767YS02001765    1.00   0.00  0.00  0.00  1.00  0.00  0.00  0.00  0.01  0.00
  YS02006561YS02001783    1.00   0.07  0.00  0.00  0.00  0.93  0.00  0.00  0.73  0.00
  YS02001783YS02001784    1.00   0.00  0.07  0.00  0.93  0.00  0.00  0.00  0.00  0.00
  YS02001784YS02001785    1.00   0.00  0.00  0.00  1.00  0.00  0.00  0.00  0.26  0.00
  YS02001788YS02001790    1.00   0.00  0.00  0.00  0.07  0.93  0.00  0.00  0.84  0.00
  YS02001790YS02001791    1.00   0.00  0.00  0.00  0.02  0.98  0.00  0.00  0.45  0.00
  YS02001791YS02001793    1.00   0.00  0.00  0.00  0.00  1.00  0.00  0.00  0.00  0.00
  YS02001910YS02001907    1.00   0.00  0.00  0.00  0.97  0.00  0.00  0.02  0.13  0.00
  YS02001786YS02001788    1.00   0.00  0.00  0.00  0.07  0.93  0.00  0.00  0.00  0.00
  YS02001915YS02001910    1.00   0.00  0.00  0.00  0.99  0.01  0.00  0.00  0.25  0.00
  YS02001918YS02001915    1.00   0.00  0.01  0.00  0.98  0.01  0.00  0.00  0.81  0.00
  YS02001923YS02001920    1.00   0.00  0.00  0.00  1.00  0.00  0.00  0.00  1.00  0.00
  YS02001926YS02001923    1.00   0.00  0.03  0.00  0.00  0.00  0.97  0.00  0.00  0.00
  YS02001929YS02001926    1.00   0.00  0.04  0.00  0.96  0.00  0.00  0.00  0.86  0.00
  YS02001920YS02001918    1.00   0.00  0.01  0.00  0.99  0.00  0.00  0.00  0.00  0.00
  YS02001629YS02163301    1.00   0.06  0.00  0.00  0.94  0.00  0.00  0.00  0.00  0.00
  YS02001619YS02001622    1.00   0.04  0.00  0.00  0.96  0.00  0.00  0.00  0.00  0.00
  YS02001622YS02001625    1.00   0.04  0.00  0.00  0.96  0.00  0.00  0.00  0.13  0.00
  YS02001625YS02001629    1.00   0.05  0.03  0.00  0.91  0.00  0.02  0.00  0.00  0.00
  YS02163301YS02001633    1.00   0.00  0.06  0.00  0.94  0.00  0.00  0.00  0.00  0.00
  YS02163601YS02164001    1.00   0.00  0.04  0.00  0.96  0.00  0.00  0.00  0.00  0.00
  YS02164001YS02001641    1.00   0.01  0.03  0.00  0.96  0.00  0.00  0.00  0.07  0.00
  YS02001641YS02001644    1.00   0.00  0.01  0.00  0.99  0.00  0.00  0.00  0.00  0.00
  YS02001647YS02001649    1.00   0.00  0.07  0.00  0.93  0.00  0.00  0.00  0.01  0.00
  YS02006553YS02006556    1.00   0.01  0.00  0.00  0.99  0.00  0.00  0.00  0.03  0.00
  YS02006556YS02006558    1.00   0.00  0.00  0.00  1.00  0.00  0.00  0.00  0.00  0.00
  YSB6556YSB1171          1.00   0.03  0.01  0.00  0.96  0.00  0.00  0.00  0.00  0.00
  YS02001907YS02006553    1.00   0.00  0.02  0.00  0.98  0.00  0.00  0.00  0.00  0.00
  YS02006558YS02006561    1.00   0.07  0.00  0.00  0.00  0.93  0.00  0.00  0.72  0.00
  YS02001633YS02163601    1.00   0.00  0.01  0.00  0.99  0.00  0.00  0.00  0.20  0.00
  YS02001644YS02001647    1.00   0.00  0.07  0.00  0.93  0.00  0.00  0.00  0.00  0.00
  YS02001745YS02001748    1.00   0.00  0.00  0.00  0.29  0.27  0.00  0.44  0.44  0.00
  YS02001748YS02001751    1.00   0.00  0.00  0.00  0.97  0.03  0.00  0.00  0.38  0.00
  YS02001751YS02001754    1.00   0.00  0.00  0.00  0.93  0.00  0.00  0.07  0.02  0.00
  YS02001754YS02001757    1.00   0.00  0.00  0.00  0.99  0.01  0.00  0.00  0.27  0.00
  YS02001882YS02001884    1.00   0.06  0.00  0.00  0.94  0.00  0.00  0.00  0.00  0.00
  YS02001884YS02001887    1.00   0.03  0.01  0.00  0.96  0.00  0.00  0.00  0.00  0.00
  YS02001890YS02001895    1.00   0.00  0.06  0.00  0.94  0.00  0.00  0.00  0.00  0.00
  YS02001895YS02001898    1.00   0.06  0.00  0.00  0.93  0.00  0.01  0.00  0.00  0.00
  YS02001898YS02001901    1.00   0.06  0.00  0.00  0.94  0.00  0.00  0.00  0.02  0.00
  YS02001901YS02001904    1.00   0.06  0.00  0.00  0.94  0.00  0.00  0.00  0.00  0.00
  YS02001904YS02001907    1.00   0.00  0.06  0.00  0.94  0.00  0.00  0.00  0.00  0.00
  YS02001887YS02001890    1.00   0.00  0.00  0.00  0.97  0.00  0.02  0.00  0.00  0.00
  YS02001652YS02001649    1.00   0.00  0.00  0.00  1.00  0.00  0.00  0.00  0.26  0.00
  YS02001655YS02001652    1.00   0.00  0.00  0.00  0.93  0.00  0.00  0.07  0.02  0.00
  YS02001658YS02001655    1.00   0.00  0.05  0.00  0.91  0.03  0.00  0.00  0.34  0.00
  YS02001661YS02001658    1.00   0.05  0.00  0.00  0.45  0.49  0.00  0.00  0.72  0.00
  YS02001664YS02001661    1.00   0.04  0.00  0.00  0.93  0.03  0.00  0.00  0.86  0.00
  YSB1154YSB6556          1.00   0.04  0.00  0.00  0.96  0.00  0.00  0.00  0.02  0.00
  YSB1174YSB1171          1.00   0.03  0.01  0.00  0.96  0.00  0.00  0.00  0.00  0.00
  YSB1171HS02004479       1.00   0.03  0.00  0.00  0.97  0.00  0.00  0.00  0.13  0.00
  HS02004881HS02006253    1.00   0.03  0.00  0.00  0.86  0.01  0.00  0.10  0.66  0.00
  YS02001793JiankangQianchi    1.00   0.00  0.00  0.00  0.02  0.98  0.00  0.00  0.02  0.00
  YS02001757CaochengTiaoxuchi    1.00   0.00  0.09  0.00  0.91  0.00  0.00  0.00  0.00  0.00
  WSF200WS02003060        1.00   0.00  0.06  0.00  0.94  0.00  0.00  0.00  0.24  0.00
  1                       1.00   0.00  0.00  0.00  0.00  1.00  0.00  0.00  0.20  0.00
  2                       1.00   0.87  0.00  0.00  0.00  0.13  0.00  0.00  0.01  0.00
  3                       1.00   0.15  0.00  0.00  0.00  0.85  0.00  0.00  0.30  0.00
  4                       1.00   1.00  0.00  0.00  0.00  0.00  0.00  0.00  0.00  0.00
  
  
  *************************
  Conduit Surcharge Summary
  *************************
  
  ----------------------------------------------------------------------------
                                                           Hours        Hours 
                         --------- Hours Full --------   Above Full   Capacity
  Conduit                Both Ends  Upstream  Dnstream   Normal Flow   Limited
  ----------------------------------------------------------------------------
  WS02006229WS02006228        0.61      1.17      0.61      4.92         0.61
  WS02006256WS02006235        5.66      5.66      6.54      4.60         0.01
  WS02006252WS02006251        0.57      0.57      0.73      0.65         0.01
  WS02006251WS02006249        0.01      0.01      0.01      0.56         0.01
  WS02006249WS02006248        0.01      0.01      0.01      4.82         0.01
  WS02006247WS02006245        0.01      0.01      0.01      5.16         0.01
  WS02006243WS02006242        0.01      0.01      0.48      0.01         0.01
  WS02006242WS02006240        0.01      0.01      0.55      0.75         0.01
  WS02006240WS02006239        0.01      0.01      0.01      0.47         0.01
  WS02006239WS02006238        0.50      0.50      0.50      0.53         0.49
  WS02006238WS02006235        0.01      0.01      0.56      0.01         0.01
  WS02006235WS02006234        0.01      0.01      0.01      5.68         0.01
  WS02006234WS02006232        0.01      0.01      0.56      0.01         0.01
  WS02006232WS02006231        0.01      0.01      0.56      0.01         0.01
  WS02006231WS02006230        0.01      0.01      0.01      5.67         0.01
  WS02006230WS02006229        1.86      4.59      1.86      5.77         1.86
  WS02006228WS02006109        0.64      1.46      0.64      5.43         0.64
  WS02006111WS02006112        0.01      0.01      5.04      0.01         0.01
  WS02006110WS02006113        0.01      0.01      1.29      0.01         0.01
  WS02006109WS02006110        0.01      0.01      1.46      0.01         0.01
  WS02004404WS02004405        0.01      0.01      0.01      5.54         0.01
  WS02003072WS02003073        0.01      0.01      0.01      5.47         0.01
  YS02001759YS02001757        0.01      0.01      2.96      0.01         0.01
  YS02001649YS02001757        0.01      0.01      2.96      0.01         0.01
  YS02001754YS02001757        0.01      0.01      2.96      0.01         0.01
  YS02001793JiankangQianchi        0.01      0.01      0.09      0.01         0.01
  YS02001757CaochengTiaoxuchi        0.01      0.01      2.96      0.01         0.01
  
  
  ***************
  Pumping Summary
  ***************
  
  ---------------------------------------------------------------------------------------------------------
                                                  Min       Avg       Max     Total     Power    % Time Off
                        Percent   Number of      Flow      Flow      Flow    Volume     Usage    Pump Curve
  Pump                 Utilized   Start-Ups       LPS       LPS       LPS  10^6 ltr     Kw-hr    Low   High
  ---------------------------------------------------------------------------------------------------------
  CC-Pump-1               51.06           1      0.00    180.99    200.00     2.590     10.01    0.0  100.0
  CC-Pump-2               35.50           2      0.00    164.20    200.00     1.610      6.86    0.0  100.0
  JK-Pump-1               89.36           2      0.00    128.94    300.00     2.389     46.37    0.0    0.0
  JK-Pump-2               74.46           1      0.00    117.32    236.56     2.291     45.14    0.0    0.0
  XR-Pump-1              100.00           1      0.00     92.77     95.00     2.622     53.70    0.0    0.0
  XR-Pump-2               42.54           2      0.00     87.15     95.00     1.026     22.27    0.0    0.0
  XR-Pump-3               89.36           2      0.00     92.14     95.00     2.337     46.39    0.0    0.0
  XR-Pump-4               76.59           1      0.00     94.78     95.00     2.023     47.84    0.0    0.0
  

  Analysis begun on:  Tue Dec 21 18:29:51 2021
  Analysis ended on:  Tue Dec 21 18:29:54 2021
  Total elapsed time: 00:00:03