
  EPA STORM WATER MANAGEMENT MODEL - VERSION 5.1 (Build 5.3.0.dev0)
  --------------------------------------------------------------

  WARNING 04: minimum elevation drop used for Conduit WS02004404WS02004405
  WARNING 03: negative offset ignored for Link YS02001904YS02001907
  
  *********************************************************
  NOTE: The summary statistics displayed in this report are
  based on results found at every computational time step,  
  not just on results from each reporting time step.
  *********************************************************
  
  ****************
  Analysis Options
  ****************
  Flow Units ............... LPS
  Process Models:
    Rainfall/Runoff ........ YES
    RDII ................... NO
    Snowmelt ............... NO
    Groundwater ............ NO
    Flow Routing ........... YES
    Ponding Allowed ........ NO
    Water Quality .......... NO
  Infiltration Method ...... HORTON
  Flow Routing Method ...... DYNWAVE
  Surcharge Method ......... EXTRAN
  Starting Date ............ 08/28/2015 08:00:00
  Ending Date .............. 08/28/2015 15:50:00
  Antecedent Dry Days ...... 8.0
  Report Time Step ......... 00:01:00
  Wet Time Step ............ 00:01:00
  Dry Time Step ............ 00:01:00
  Routing Time Step ........ 5.00 sec
  Variable Time Step ....... YES
  Maximum Trials ........... 8
  Number of Threads ........ 4
  Head Tolerance ........... 0.001500 m
  
  
  **************************        Volume         Depth
  Runoff Quantity Continuity     hectare-m            mm
  **************************     ---------       -------
  Total Precipitation ......         2.740         6.000
  Evaporation Loss .........         0.000         0.000
  Infiltration Loss ........         0.689         1.508
  Surface Runoff ...........         1.164         2.549
  Final Storage ............         0.888         1.944
  Continuity Error (%) .....        -0.018
  
  
  **************************        Volume        Volume
  Flow Routing Continuity        hectare-m      10^6 ltr
  **************************     ---------     ---------
  Dry Weather Inflow .......         0.616         6.165
  Wet Weather Inflow .......         1.164        11.637
  Groundwater Inflow .......         0.000         0.000
  RDII Inflow ..............         0.000         0.000
  External Inflow ..........         0.102         1.024
  External Outflow .........         2.018        20.176
  Flooding Loss ............         0.000         0.000
  Evaporation Loss .........         0.000         0.000
  Exfiltration Loss ........         0.000         0.000
  Initial Stored Volume ....         0.076         0.761
  Final Stored Volume ......         0.319         3.193
  Continuity Error (%) .....       -19.317
  
  
  *************************
  Highest Continuity Errors
  *************************
  Node JK-storage (-90.63%)
  Node HS02004842 (28.09%)
  Node YS02001884 (22.60%)
  Node YS02001774 (12.14%)
  Node YSB1171 (6.85%)
  
  
  ***************************
  Time-Step Critical Elements
  ***************************
  Link WS02006252WS02006251 (49.22%)
  Link 3 (44.93%)
  Link WS02006280WS02006229 (1.70%)
  Link WS02006238WS02006235 (1.12%)
  
  
  ********************************
  Highest Flow Instability Indexes
  ********************************
  Link WS02006113WS02006111 (37)
  Link WS02006111WS02006112 (22)
  Link YS02006558YS02006561 (15)
  Link YS02001655YS02001652 (5)
  Link YS02001641YS02001644 (5)
  
  
  *************************
  Routing Time Step Summary
  *************************
  Minimum Time Step           :     0.50 sec
  Average Time Step           :     0.82 sec
  Maximum Time Step           :     5.00 sec
  Percent in Steady State     :    -0.00
  Average Iterations per Step :     2.41
  Percent Not Converging      :     5.30
  
  
  ***************************
  Subcatchment Runoff Summary
  ***************************
  
  ------------------------------------------------------------------------------------------------------------------------------
                            Total      Total      Total      Total     Imperv       Perv      Total       Total     Peak  Runoff
                           Precip      Runon       Evap      Infil     Runoff     Runoff     Runoff      Runoff   Runoff   Coeff
  Subcatchment                 mm         mm         mm         mm         mm         mm         mm    10^6 ltr      LPS
  ------------------------------------------------------------------------------------------------------------------------------
  sub0                       6.00       0.00       0.00       0.42       4.32       0.00       4.32        0.00     1.44   0.719
  sub1                       6.00       0.00       0.00       0.66       4.08       0.00       4.08        0.03     7.61   0.681
  sub2                       6.00       0.00       0.00       2.22       2.87       0.00       2.87        0.03     6.74   0.479
  sub3                       6.00       0.00       0.00       2.22       2.84       0.00       2.84        0.06    13.89   0.473
  sub4                       6.00       0.00       0.00       0.66       3.95       0.00       3.95        0.08    15.61   0.658
  sub5                       6.00       0.00       0.00       0.42       4.27       0.00       4.27        0.05    13.53   0.711
  sub7                       6.00       0.00       0.00       0.54       4.21       0.00       4.21        0.01     4.76   0.701
  sub8                       6.00       0.00       0.00       0.54       4.20       0.00       4.20        0.03     8.41   0.699
  sub9                       6.00       0.00       0.00       0.54       4.19       0.00       4.19        0.02     6.23   0.699
  sub10                      6.00       0.00       0.00       0.48       4.23       0.00       4.23        0.05    13.51   0.705
  sub11                      6.00       0.00       0.00       0.48       4.25       0.00       4.25        0.05    15.82   0.708
  sub12                      6.00       0.00       0.00       0.78       4.03       0.00       4.03        0.04    13.37   0.672
  sub14                      6.00       0.00       0.00       0.54       4.19       0.00       4.19        0.04    12.19   0.699
  sub15                      6.00       0.00       0.00       1.80       3.22       0.00       3.22        0.06    16.54   0.537
  sub16                      6.00       0.00       0.00       1.98       3.10       0.00       3.10        0.03    11.75   0.517
  sub17                      6.00       0.00       0.00       1.92       3.15       0.00       3.15        0.03     9.50   0.524
  sub22                      6.00       0.00       0.00       2.58       2.63       0.00       2.63        0.17    54.10   0.439
  sub23                      6.00       0.00       0.00       2.22       2.91       0.00       2.91        0.14    46.08   0.485
  sub60                      6.00       0.00       0.00       0.72       2.84       0.00       2.84        0.86    79.76   0.473
  sub61                      6.00       0.00       0.00       1.02       3.04       0.00       3.04        0.94   100.03   0.506
  sub62                      6.00       0.00       0.00       0.48       3.26       0.00       3.26        1.00   102.24   0.543
  sub63                      6.00       0.00       0.00       1.74       2.70       0.00       2.70        0.82    93.34   0.451
  sub64                      6.00       0.00       0.00       0.90       2.71       0.00       2.71        0.83    75.76   0.452
  sub65                      6.00       0.00       0.00       0.78       2.75       0.00       2.75        0.85    76.87   0.458
  sub66                      6.00       0.00       0.00       1.74       2.37       0.00       2.37        0.73    69.43   0.395
  sub67                      6.00       0.00       0.00       0.48       3.58       0.00       3.58        1.10   131.19   0.596
  sub68                      6.00       0.00       0.00       0.84       3.23       0.00       3.23        0.99   110.58   0.538
  sub69                      6.00       0.00       0.00       0.90       3.48       0.00       3.48        0.81   109.76   0.581
  sub70                      6.00       3.56       0.00       3.25       4.28       0.00       4.28        0.98    88.75   0.448
  sub71                      6.00       0.00       0.00       0.48       3.11       0.00       3.11        0.74    71.37   0.519
  sub72                      6.00       0.00       0.00       0.42       2.20       0.00       2.20        0.45    33.68   0.367
  sub73                      6.00       4.17       0.00       3.46       4.36       0.00       4.36        1.03    76.27   0.429
  sub74                      6.00       0.00       0.00       4.50       1.05       0.00       1.05        0.42    61.21   0.175
  
  
  ******************
  Node Depth Summary
  ******************
  
  ---------------------------------------------------------------------------------
                                 Average  Maximum  Maximum  Time of Max    Reported
                                   Depth    Depth      HGL   Occurrence   Max Depth
  Node                 Type       Meters   Meters   Meters  days hr:min      Meters
  ---------------------------------------------------------------------------------
  WS02001211           JUNCTION     0.73     0.79     5.63     0  02:45        0.79
  WS02001212           JUNCTION     0.44     0.50     5.57     0  02:44        0.50
  WS02001213           JUNCTION     0.67     0.75     5.51     0  02:43        0.75
  WS02003069           JUNCTION     0.47     0.57     5.16     0  02:43        0.57
  WS02003072           JUNCTION     0.54     0.63     5.00     0  02:43        0.63
  WS02003073           JUNCTION     0.32     0.39     4.45     0  02:44        0.39
  WS02003060           JUNCTION     0.42     0.50     5.44     0  02:42        0.50
  WS02003066           JUNCTION     0.23     0.29     5.84     0  02:40        0.29
  WS02003059           JUNCTION     0.72     0.80     5.49     0  02:43        0.80
  WS02003067           JUNCTION     0.58     0.69     6.01     0  02:40        0.69
  WS02004401           JUNCTION     0.68     0.83     6.83     0  02:36        0.83
  WS02004402           JUNCTION     0.71     0.85     6.81     0  02:36        0.85
  WS02004403           JUNCTION     0.73     0.87     6.80     0  02:36        0.87
  WS02004404           JUNCTION     0.80     0.94     6.79     0  02:36        0.94
  WS02004406           JUNCTION     0.81     0.94     6.77     0  02:36        0.94
  WS02004409           JUNCTION     0.50     0.64     6.41     0  02:39        0.64
  WS02004410           JUNCTION     0.51     0.66     6.38     0  02:39        0.66
  WS02004411           JUNCTION     0.53     0.67     6.35     0  02:39        0.67
  WS02004412           JUNCTION     0.55     0.68     6.32     0  02:40        0.68
  WS02004413           JUNCTION     0.70     0.84     6.31     0  02:40        0.84
  WS02004405           JUNCTION     0.80     0.94     6.79     0  02:36        0.94
  WS02006109           JUNCTION     0.75     0.93     7.55     0  02:32        0.93
  WS02006110           JUNCTION     0.75     0.90     7.48     0  02:32        0.90
  WS02006111           JUNCTION     0.22     0.28     6.98     0  02:32        0.28
  WS02006112           JUNCTION     0.84     1.02     6.90     0  02:35        1.02
  WS02006113           JUNCTION     0.34     0.44     7.33     0  02:32        0.44
  WS02006115           JUNCTION     0.57     0.72     6.86     0  02:35        0.72
  WS02006116           JUNCTION     0.65     0.80     6.84     0  02:36        0.80
  WS02006230           JUNCTION     0.72     0.96     7.70     0  02:33        0.96
  WS02006231           JUNCTION     0.48     0.63     7.75     0  02:34        0.63
  WS02006232           JUNCTION     0.62     0.76     7.80     0  02:35        0.76
  WS02006234           JUNCTION     0.53     0.69     7.85     0  02:37        0.69
  WS02006235           JUNCTION     0.57     0.72     7.88     0  02:37        0.72
  WS02006238           JUNCTION     0.59     0.74     7.89     0  02:37        0.74
  WS02006240           JUNCTION     0.48     0.64     7.93     0  02:38        0.64
  WS02006242           JUNCTION     0.53     0.69     7.96     0  02:38        0.69
  WS02006243           JUNCTION     0.41     0.56     7.98     0  02:38        0.56
  WS02006245           JUNCTION     0.39     0.52     8.00     0  02:38        0.52
  WS02006247           JUNCTION     0.41     0.53     8.03     0  02:38        0.53
  WS02006248           JUNCTION     0.35     0.46     8.05     0  02:38        0.46
  WS02006249           JUNCTION     0.39     0.48     8.08     0  02:38        0.48
  WS02006239           JUNCTION     0.54     0.70     7.91     0  02:37        0.70
  WS02006251           JUNCTION     0.37     0.45     8.12     0  02:38        0.45
  WS02006252           JUNCTION     0.32     0.35     8.59     0  02:21        0.35
  WS02006253           JUNCTION     0.40     0.48     8.12     0  02:38        0.48
  WS02006256           JUNCTION     1.08     1.20     8.14     0  02:37        1.20
  WS02004138           JUNCTION     0.18     0.19     7.44     0  02:00        0.19
  WS02004407           JUNCTION     0.22     0.29     6.60     0  02:37        0.29
  WS02006228           JUNCTION     0.75     0.96     7.61     0  02:32        0.96
  WS02006229           JUNCTION     0.72     0.96     7.65     0  02:31        0.96
  WS02006280           JUNCTION     0.06     0.15     8.42     0  02:18        0.15
  WS02006284           JUNCTION     0.35     0.48     8.88     0  02:18        0.48
  WS02006287           JUNCTION     0.08     0.21     9.17     0  02:17        0.21
  WSF200               JUNCTION     0.21     0.29     5.52     0  02:39        0.29
  HS02004901           JUNCTION     0.11     0.23    10.05     0  02:15        0.23
  HS02004881           JUNCTION     0.01     0.02     9.05     0  02:17        0.02
  HS02004876           JUNCTION     0.04     0.10     9.13     0  02:16        0.10
  HS02004870           JUNCTION     0.01     0.04     9.33     0  02:18        0.04
  HS02004862           JUNCTION     0.01     0.05     9.43     0  02:19        0.05
  HS02004856           JUNCTION     0.07     0.10     9.53     0  02:18        0.10
  HS02004852           JUNCTION     0.01     0.03     9.54     0  02:19        0.03
  HS02004848           JUNCTION     0.01     0.03     9.63     0  02:18        0.03
  HS02004842           JUNCTION     0.33     0.36     9.63     0  02:17        0.36
  HS02004837           JUNCTION     0.03     0.05     9.63     0  02:17        0.05
  HS02004830           JUNCTION     0.04     0.06     9.53     0  02:18        0.06
  HS02004824           JUNCTION     0.02     0.04     9.44     0  02:21        0.04
  HS02004817           JUNCTION     0.42     0.53     9.37     0  02:18        0.53
  HS02004807           JUNCTION     0.11     0.20     9.37     0  02:18        0.20
  HS02004802           JUNCTION     0.15     0.24     9.37     0  02:18        0.24
  HS02004799           JUNCTION     0.10     0.26     9.47     0  02:16        0.26
  HS02004792           JUNCTION     0.02     0.10     9.62     0  02:15        0.10
  HS02004788           JUNCTION     0.02     0.07     9.97     0  02:16        0.07
  HS02004785           JUNCTION     0.04     0.14    10.04     0  02:16        0.14
  HS02004777           JUNCTION     0.13     0.25    10.05     0  02:15        0.25
  HS02004770           JUNCTION     0.10     0.22    10.05     0  02:15        0.22
  HS02004480           JUNCTION     0.07     0.20     9.44     0  02:16        0.20
  HS02004479           JUNCTION     0.10     0.24     9.44     0  02:16        0.24
  HS02004478           JUNCTION     0.05     0.13     9.36     0  02:17        0.13
  YS02001745           JUNCTION     0.11     0.22     7.73     0  05:23        0.20
  YS02001748           JUNCTION     0.45     0.62     7.69     0  05:27        0.61
  YS02001751           JUNCTION     0.63     0.83     7.70     0  05:22        0.82
  YS02001754           JUNCTION     0.88     1.15     7.76     0  05:22        1.14
  YS02001762           JUNCTION     1.08     1.51     7.91     0  04:43        1.36
  YS02001765           JUNCTION     1.03     1.52     7.97     0  04:43        1.33
  YS02001767           JUNCTION     0.99     1.55     8.04     0  04:43        1.32
  YS02001770           JUNCTION     0.99     1.65     8.14     0  04:41        1.34
  YS02001774           JUNCTION     1.06     1.75     8.17     0  04:41        1.43
  YS02001779           JUNCTION     0.81     1.50     8.18     0  04:41        1.18
  YS02001882           JUNCTION     0.29     0.47     7.18     0  02:50        0.47
  YS02001884           JUNCTION     0.39     0.56     7.18     0  02:48        0.56
  YS02001759           JUNCTION     1.11     1.46     7.82     0  05:31        1.39
  YS02001887           JUNCTION     0.46     0.64     7.18     0  02:49        0.64
  YS02001890           JUNCTION     0.49     0.67     7.18     0  02:49        0.67
  YS02001898           JUNCTION     0.26     0.43     7.16     0  02:51        0.43
  YS02001901           JUNCTION     0.38     0.55     7.16     0  02:51        0.55
  YS02001904           JUNCTION     0.36     0.53     7.16     0  02:51        0.53
  YS02001907           JUNCTION     0.69     0.87     7.16     0  02:51        0.87
  YS02001910           JUNCTION     0.48     0.66     7.16     0  02:51        0.66
  YS02001915           JUNCTION     0.28     0.44     7.16     0  02:51        0.44
  YS02001918           JUNCTION     0.08     0.10     7.16     0  03:03        0.10
  YS02001619           JUNCTION     0.59     0.77     7.70     0  05:32        0.76
  YS02001629           JUNCTION     0.94     1.15     7.70     0  05:20        1.15
  YS02001641           JUNCTION     1.04     1.34     7.78     0  05:31        1.33
  YS02001644           JUNCTION     1.05     1.35     7.78     0  05:31        1.34
  YS02001652           JUNCTION     0.89     1.15     7.75     0  05:23        1.14
  YS02001655           JUNCTION     0.66     0.86     7.71     0  05:27        0.86
  YS02001920           JUNCTION     0.18     0.21     7.22     0  03:02        0.21
  YS02001923           JUNCTION     0.07     0.09     7.35     0  03:02        0.09
  YS02001926           JUNCTION     0.14     0.18     7.62     0  03:01        0.18
  YS02001929           JUNCTION     0.07     0.09     7.78     0  03:01        0.09
  YS02001658           JUNCTION     0.39     0.56     7.70     0  05:19        0.55
  YS02001661           JUNCTION     0.20     0.31     7.71     0  05:27        0.30
  YS02001664           JUNCTION     0.07     0.12     8.04     0  02:45        0.12
  YS02001622           JUNCTION     0.61     0.79     7.69     0  05:20        0.78
  YS02001633           JUNCTION     1.03     1.29     7.74     0  05:31        1.27
  YS02001649           JUNCTION     1.09     1.37     7.76     0  05:23        1.36
  YS02001757           JUNCTION     1.21     1.50     7.76     0  05:22        1.48
  YS02001895           JUNCTION     0.26     0.43     7.17     0  02:49        0.43
  YS02001625           JUNCTION     0.89     1.10     7.70     0  05:25        1.09
  YS02163301           JUNCTION     0.97     1.21     7.72     0  05:31        1.19
  YS02163601           JUNCTION     1.08     1.36     7.76     0  05:31        1.34
  YS02164001           JUNCTION     1.02     1.32     7.77     0  05:31        1.29
  YS02001647           JUNCTION     0.88     1.17     7.78     0  05:23        1.16
  YSB1154              JUNCTION     0.24     0.39     9.44     0  02:16        0.39
  YSB6556              JUNCTION     0.13     0.28     9.44     0  02:16        0.27
  YSB1174              JUNCTION     0.19     0.34     9.44     0  02:16        0.33
  YSB1171              JUNCTION     0.39     0.54     9.44     0  02:16        0.54
  YS02006553           JUNCTION     0.69     0.88     7.16     0  02:52        0.88
  YS02006561           JUNCTION     0.14     0.23     6.89     0  02:52        0.23
  YS02006556           JUNCTION     0.67     0.85     7.16     0  02:52        0.85
  YS02006558           JUNCTION     0.71     0.89     7.16     0  02:52        0.89
  YS02001783           JUNCTION     0.25     0.41     6.55     0  02:52        0.41
  YS02001784           JUNCTION     0.28     0.44     6.51     0  02:52        0.44
  YS02001786           JUNCTION     0.24     0.37     6.40     0  02:53        0.37
  YS02001788           JUNCTION     0.17     0.28     6.26     0  02:53        0.28
  YS02001790           JUNCTION     0.21     0.34     5.99     0  02:53        0.34
  YS02001791           JUNCTION     0.14     0.22     5.69     0  02:53        0.22
  YS02001793           JUNCTION     0.09     0.15     4.98     0  02:53        0.15
  WS02004139           JUNCTION     0.67     0.74     5.65     0  02:45        0.74
  WSC                  OUTFALL      0.32     0.39     1.06     0  02:44        0.39
  3                    OUTFALL      0.11     0.20     6.20     0  02:37        0.20
  4                    OUTFALL      0.00     0.00     7.00     0  00:00        0.00
  5                    OUTFALL      0.00     0.00     5.00     0  00:00        0.00
  JK-storage           STORAGE      0.03     3.00     3.80     0  00:00        2.70
  CC-storage           STORAGE      0.45     0.67     7.67     0  05:29        0.67
  XR-storage           STORAGE      1.29     5.59     3.59     0  01:50        5.59
  
  
  *******************
  Node Inflow Summary
  *******************
  
  -------------------------------------------------------------------------------------------------
                                  Maximum  Maximum                  Lateral       Total        Flow
                                  Lateral    Total  Time of Max      Inflow      Inflow     Balance
                                   Inflow   Inflow   Occurrence      Volume      Volume       Error
  Node                 Type           LPS      LPS  days hr:min    10^6 ltr    10^6 ltr     Percent
  -------------------------------------------------------------------------------------------------
  WS02001211           JUNCTION      7.35   387.92     0  03:02       0.207        8.47       0.441
  WS02001212           JUNCTION      0.00   388.22     0  03:02           0        8.43       0.248
  WS02001213           JUNCTION      0.00   388.50     0  03:01           0        8.41       0.274
  WS02003069           JUNCTION      0.32   906.93     0  02:42     0.00902        15.9       0.197
  WS02003072           JUNCTION      0.00   906.92     0  02:43           0        15.9       0.239
  WS02003073           JUNCTION      1.82   908.75     0  02:43      0.0514        15.9       0.270
  WS02003060           JUNCTION     16.53   906.59     0  02:42       0.466        15.9       0.185
  WS02003066           JUNCTION      0.00   504.53     0  02:40           0        7.11       0.064
  WS02003059           JUNCTION      0.00   388.96     0  03:19           0        8.39       0.469
  WS02003067           JUNCTION      0.00   504.51     0  02:40           0        7.12       0.134
  WS02004401           JUNCTION      0.00   506.57     0  02:35           0        7.36       0.298
  WS02004402           JUNCTION      0.00   506.31     0  02:35           0        7.34       0.280
  WS02004403           JUNCTION      0.00   506.15     0  02:35           0        7.32       0.254
  WS02004404           JUNCTION      0.16   506.29     0  02:36     0.00457        7.31       0.192
  WS02004406           JUNCTION      0.00   506.30     0  02:36           0        7.27       0.467
  WS02004409           JUNCTION      0.00   506.26     0  02:37           0        7.23       0.233
  WS02004410           JUNCTION      0.00   505.50     0  02:37           0        7.21       0.262
  WS02004411           JUNCTION      0.00   504.99     0  02:38           0        7.19       0.268
  WS02004412           JUNCTION      0.00   504.71     0  02:39           0        7.18       0.289
  WS02004413           JUNCTION      0.00   504.55     0  02:39           0        7.15       0.427
  WS02004405           JUNCTION      0.04   506.30     0  02:36     0.00107        7.29       0.286
  WS02006109           JUNCTION      1.23   503.40     0  02:32      0.0347        7.46       0.295
  WS02006110           JUNCTION      0.00   503.40     0  02:32           0        7.44       0.270
  WS02006111           JUNCTION      0.00   521.04     0  02:32           0        7.41       0.059
  WS02006112           JUNCTION      9.50   511.40     0  02:32       0.027        7.43       0.398
  WS02006113           JUNCTION      0.00   503.56     0  02:32           0        7.42       0.138
  WS02006115           JUNCTION      0.00   508.55     0  02:33           0         7.4       0.280
  WS02006116           JUNCTION      0.00   507.15     0  02:34           0        7.38       0.265
  WS02006230           JUNCTION     10.28   347.93     0  02:47        0.29        6.55       0.229
  WS02006231           JUNCTION      0.00   336.89     0  02:48           0        6.27       0.150
  WS02006232           JUNCTION      0.00   336.78     0  02:48           0        6.28       0.261
  WS02006234           JUNCTION      0.00   336.37     0  02:49           0        6.29       0.129
  WS02006235           JUNCTION      0.00   336.15     0  02:49           0        6.33       0.176
  WS02006238           JUNCTION      0.00   232.53     0  02:45           0         4.1       0.194
  WS02006240           JUNCTION      0.00   231.20     0  02:43           0        4.09       0.297
  WS02006242           JUNCTION      0.00   230.56     0  02:42           0        4.09       0.358
  WS02006243           JUNCTION      0.00   229.80     0  02:41           0        4.09       0.185
  WS02006245           JUNCTION      0.00   232.70     0  02:25           0         4.1       0.200
  WS02006247           JUNCTION      0.00   234.80     0  02:26           0         4.1       0.168
  WS02006248           JUNCTION      0.00   236.15     0  02:25           0        4.11       0.111
  WS02006249           JUNCTION      0.00   237.60     0  02:24           0        4.12       0.239
  WS02006239           JUNCTION      0.00   231.95     0  02:44           0        4.09       0.292
  WS02006251           JUNCTION      0.08   239.37     0  02:23     0.00217        4.13       0.214
  WS02006252           JUNCTION      0.00   200.00     0  04:30           0        3.98       0.011
  WS02006253           JUNCTION      1.44    42.32     0  02:17     0.00349       0.152       2.486
  WS02006256           JUNCTION      0.00   600.00     0  02:30           0        6.61       0.048
  WS02004138           JUNCTION      0.00   380.00     0  02:00           0        8.29       0.056
  WS02004407           JUNCTION      0.00   506.28     0  02:37           0        7.24       0.105
  WS02006228           JUNCTION      0.00   502.17     0  02:32           0        7.44       0.208
  WS02006229           JUNCTION      0.00   502.17     0  02:31           0        7.45       0.171
  WS02006280           JUNCTION      0.00   216.64     0  02:18           0       0.924       0.007
  WS02006284           JUNCTION      0.10   216.63     0  02:17      0.0027       0.925       0.116
  WS02006287           JUNCTION      0.00   216.52     0  02:17           0       0.923       0.079
  WSF200               JUNCTION      0.00   504.53     0  02:40           0        7.11       0.060
  HS02004901           JUNCTION     11.75    11.75     0  02:10      0.0324      0.0326       5.696
  HS02004881           JUNCTION      4.76    41.21     0  02:17      0.0142       0.149       0.224
  HS02004876           JUNCTION      7.61    36.76     0  02:17      0.0271       0.135       0.391
  HS02004870           JUNCTION      8.41    29.30     0  02:17      0.0268       0.108       0.098
  HS02004862           JUNCTION      6.94    21.43     0  02:18      0.0324      0.0817       0.208
  HS02004856           JUNCTION      6.23    14.54     0  02:17      0.0202      0.0507       2.925
  HS02004852           JUNCTION      0.00     8.69     0  02:18           0      0.0306       0.166
  HS02004848           JUNCTION     13.89    13.89     0  02:20      0.0639      0.0639       0.068
  HS02004842           JUNCTION      0.00     5.68     0  02:30           0      0.0463      39.055
  HS02004837           JUNCTION     19.86    24.67     0  02:17       0.226       0.259       0.315
  HS02004830           JUNCTION      0.15    24.80     0  02:17     0.00423       0.249       0.497
  HS02004824           JUNCTION     15.66    40.27     0  02:21      0.0837       0.332       0.162
  HS02004817           JUNCTION      0.60    40.87     0  02:21      0.0169       0.348       5.027
  HS02004807           JUNCTION     15.82    55.30     0  02:19      0.0493       0.381       1.122
  HS02004802           JUNCTION      0.00    55.62     0  02:20           0       0.377       1.089
  HS02004799           JUNCTION     12.19   137.49     0  02:15      0.0399       0.481       0.475
  HS02004792           JUNCTION     54.38   125.54     0  02:15       0.174       0.442       0.093
  HS02004788           JUNCTION     18.21    73.10     0  02:15       0.102       0.269       0.146
  HS02004785           JUNCTION      0.15    55.23     0  02:15     0.00423       0.168       0.287
  HS02004777           JUNCTION      0.03    55.53     0  02:13    0.000846       0.169       3.165
  HS02004770           JUNCTION     46.08    56.60     0  02:12       0.139        0.17       1.860
  HS02004480           JUNCTION      0.00   162.16     0  02:16           0       0.562       0.130
  HS02004479           JUNCTION      0.00    25.16     0  02:17           0      0.0929       0.791
  HS02004478           JUNCTION      0.00   216.50     0  02:17           0       0.923       0.066
  YS02001745           JUNCTION     79.77    79.77     0  03:01       0.861       0.871       0.115
  YS02001748           JUNCTION      0.04    95.65     0  05:23     0.00127       0.891       0.846
  YS02001751           JUNCTION      0.01   113.75     0  04:58     0.00031       0.875       1.831
  YS02001754           JUNCTION      0.26   103.23     0  02:48     0.00733        0.85       2.383
  YS02001762           JUNCTION      0.00   111.05     0  02:40           0       0.943       2.274
  YS02001765           JUNCTION      0.00   122.69     0  02:44           0       0.944       2.580
  YS02001767           JUNCTION      0.54   124.36     0  02:47      0.0151       0.964       3.687
  YS02001770           JUNCTION    102.39   126.44     0  02:45           1        1.09       2.583
  YS02001774           JUNCTION      0.00    54.33     0  04:41           0       0.204      13.813
  YS02001779           JUNCTION      0.01    54.00     0  04:41    0.000141      0.0943      13.444
  YS02001882           JUNCTION      0.00     4.17     0  02:09           0     0.00542      45.464
  YS02001884           JUNCTION      0.00    11.59     0  02:06           0      0.0217      29.201
  YS02001759           JUNCTION    100.07   210.24     0  02:56       0.937        1.84       1.251
  YS02001887           JUNCTION    131.64   131.64     0  02:42        1.12        1.13       0.643
  YS02001890           JUNCTION      0.00   131.17     0  02:48           0         1.1       0.720
  YS02001898           JUNCTION      0.00   130.99     0  02:49           0        1.09       0.204
  YS02001901           JUNCTION      0.00   130.93     0  02:49           0        1.09       0.512
  YS02001904           JUNCTION      0.00   130.94     0  02:49           0        1.09       0.476
  YS02001907           JUNCTION      0.00   236.49     0  02:53           0        2.34       0.956
  YS02001910           JUNCTION      0.00   107.98     0  03:00           0        1.26       0.818
  YS02001915           JUNCTION     71.39   107.58     0  03:01       0.736        1.26       0.366
  YS02001918           JUNCTION      0.00    36.54     0  03:02           0       0.527       0.220
  YS02001619           JUNCTION     69.43    69.43     0  02:58       0.726       0.726       1.021
  YS02001629           JUNCTION      0.00    88.28     0  04:38           0       0.674       3.101
  YS02001641           JUNCTION      0.00   157.74     0  03:04           0        1.42       1.470
  YS02001644           JUNCTION     75.80   236.64     0  03:04       0.826        2.22       1.173
  YS02001652           JUNCTION      0.00   131.19     0  02:58           0       0.801       2.480
  YS02001655           JUNCTION      0.15   117.40     0  02:59     0.00434       0.846       2.059
  YS02001920           JUNCTION      2.87    36.56     0  03:02      0.0809       0.529       0.393
  YS02001923           JUNCTION      0.04    33.69     0  03:01     0.00106       0.448       0.069
  YS02001926           JUNCTION      0.05    33.72     0  03:01     0.00147       0.449       0.491
  YS02001929           JUNCTION     33.68    33.68     0  03:01       0.448       0.448       0.067
  YS02001658           JUNCTION      0.00   139.81     0  04:38           0       0.914       0.864
  YS02001661           JUNCTION      0.00    93.34     0  02:45           0       0.884       0.090
  YS02001664           JUNCTION     93.34    93.34     0  02:45       0.818       0.818       0.017
  YS02001622           JUNCTION      0.00    81.12     0  02:49           0       0.734       2.887
  YS02001633           JUNCTION     77.07   163.26     0  03:04        0.85        1.48       2.165
  YS02001649           JUNCTION      0.00   321.05     0  02:59           0        2.94       1.265
  YS02001757           JUNCTION      0.00   581.60     0  02:58           0        5.51       1.698
  YS02001895           JUNCTION      0.00   130.99     0  02:48           0        1.09       0.345
  YS02001625           JUNCTION      0.00    89.66     0  04:39           0        0.72       5.143
  YS02163301           JUNCTION      0.00    99.67     0  03:05           0       0.655       3.671
  YS02163601           JUNCTION      0.11   153.13     0  02:47      0.0031        1.44       2.110
  YS02164001           JUNCTION      0.00   151.15     0  02:52           0        1.42       1.364
  YS02001647           JUNCTION      0.00   238.53     0  03:04           0        2.18       1.069
  YSB1154              JUNCTION     13.53    13.53     0  02:15      0.0483      0.0496       2.997
  YSB6556              JUNCTION      0.00    13.53     0  02:17           0      0.0506       2.526
  YSB1174              JUNCTION     13.37    13.37     0  02:09      0.0352      0.0362       3.679
  YSB1171              JUNCTION      0.00    25.15     0  02:15           0      0.0923       7.353
  YS02006553           JUNCTION      0.00   236.46     0  02:55           0        2.32       0.620
  YS02006561           JUNCTION      0.00   353.39     0  02:52           0        3.29       0.019
  YS02006556           JUNCTION      0.00   236.51     0  02:55           0        2.33       0.448
  YS02006558           JUNCTION    111.46   347.27     0  02:52        1.02        3.32       0.138
  YS02001783           JUNCTION      0.00   347.35     0  02:52           0        3.29       0.048
  YS02001784           JUNCTION      1.06   348.29     0  02:52      0.0299        3.32       0.078
  YS02001786           JUNCTION      0.06   348.32     0  02:52     0.00159        3.32       0.075
  YS02001788           JUNCTION      0.07   348.38     0  02:53       0.002        3.32       0.044
  YS02001790           JUNCTION      0.15   348.54     0  02:53     0.00437        3.32       0.055
  YS02001791           JUNCTION      0.00   348.51     0  02:53           0        3.32       0.027
  YS02001793           JUNCTION      0.00   348.52     0  02:53           0        3.32       0.012
  WS02004139           JUNCTION      0.32   380.32     0  02:00     0.00905         8.3       0.459
  WSC                  OUTFALL       0.00   908.77     0  02:44           0        15.8       0.000
  3                    OUTFALL       0.00   499.37     0  02:37           0        4.34       0.000
  4                    OUTFALL       0.00     0.00     0  00:00           0           0       0.000 ltr
  5                    OUTFALL       0.00     0.00     0  00:00           0           0       0.000 ltr
  JK-storage           STORAGE       0.00   348.52     0  02:53           0        3.47     -47.542
  CC-storage           STORAGE       0.00   581.28     0  02:58           0        5.41       0.569
  XR-storage           STORAGE     329.23   329.23     0  02:54        7.08        7.68      -7.339
  
  
  **********************
  Node Surcharge Summary
  **********************
  
  Surcharging occurs when water rises above the top of the highest conduit.
  ---------------------------------------------------------------------
                                               Max. Height   Min. Depth
                                   Hours       Above Crown    Below Rim
  Node                 Type      Surcharged         Meters       Meters
  ---------------------------------------------------------------------
  WS02006109           JUNCTION        0.96          0.113        1.707
  WS02006112           JUNCTION        0.26          0.016        1.664
  WS02006232           JUNCTION        0.70          0.058        1.422
  WS02006235           JUNCTION        0.15          0.006        1.284
  WS02006238           JUNCTION        0.31          0.021        1.409
  WS02006228           JUNCTION        0.93          0.133        2.067
  YS02001754           JUNCTION        0.99          0.098        1.052
  YS02001762           JUNCTION        5.17          0.508        0.642
  YS02001765           JUNCTION        5.07          0.524        0.576
  YS02001767           JUNCTION        4.76          0.554        0.476
  YS02001770           JUNCTION        4.07          0.618        0.302
  YS02001774           JUNCTION        5.13          0.746        0.304
  YS02001779           JUNCTION        0.37          0.498        0.182
  YS02001759           JUNCTION        5.23          0.460        0.750
  YS02001641           JUNCTION        5.11          0.339        0.761
  YS02001644           JUNCTION        5.12          0.346        0.574
  YS02001652           JUNCTION        2.16          0.119        1.011
  YS02001633           JUNCTION        5.01          0.270        0.790
  YS02001649           JUNCTION        5.19          0.368        0.682
  YS02001757           JUNCTION        5.36          0.499        0.711
  YS02001625           JUNCTION        2.73          0.097        0.683
  YS02163301           JUNCTION        4.25          0.205        0.825
  YS02163601           JUNCTION        5.19          0.365        0.715
  YS02164001           JUNCTION        5.06          0.317        0.783
  YS02001647           JUNCTION        2.58          0.167        0.733
  
  
  *********************
  Node Flooding Summary
  *********************
  
  No nodes were flooded.
  
  
  **********************
  Storage Volume Summary
  **********************
  
  --------------------------------------------------------------------------------------------------
                         Average     Avg  Evap Exfil       Maximum     Max    Time of Max    Maximum
                          Volume    Pcnt  Pcnt  Pcnt        Volume    Pcnt     Occurrence    Outflow
  Storage Unit           1000 m3    Full  Loss  Loss       1000 m3    Full    days hr:min        LPS
  --------------------------------------------------------------------------------------------------
  JK-storage               0.002       1     0     0         0.151      52       0  00:00     600.00
  CC-storage               1.262       8     0     0         1.857      12       0  05:29     200.00
  XR-storage               0.155      17     0     0         0.671      72       0  01:50     380.00
  
  
  ***********************
  Outfall Loading Summary
  ***********************
  
  -----------------------------------------------------------
                         Flow       Avg       Max       Total
                         Freq      Flow      Flow      Volume
  Outfall Node           Pcnt       LPS       LPS    10^6 ltr
  -----------------------------------------------------------
  WSC                   99.99    668.75    908.77      15.838
  3                     95.10    223.70    499.37       4.339
  4                      0.00      0.00      0.00       0.000
  5                      0.00      0.00      0.00       0.000
  -----------------------------------------------------------
  System                48.77    892.46   1406.46      20.176
  
  
  ********************
  Link Flow Summary
  ********************
  
  -----------------------------------------------------------------------------
                                 Maximum  Time of Max   Maximum    Max/    Max/
                                  |Flow|   Occurrence   |Veloc|    Full    Full
  Link                 Type          LPS  days hr:min     m/sec    Flow   Depth
  -----------------------------------------------------------------------------
  WS02003066WSF200     CONDUIT    504.53     0  02:40      2.75    0.09    0.22
  WS02006287WS02006284 CONDUIT    216.54     0  02:17      1.65    0.10    0.22
  WS02006284WS02006280 CONDUIT    216.64     0  02:18      1.89    0.09    0.20
  WS02006280WS02006229 CONDUIT    216.64     0  02:18      3.04    0.05    0.15
  WS02006229WS02006228 CONDUIT    502.17     0  02:32      1.00    1.66    1.00
  WS02006256WS02006235 CONDUIT    166.25     0  00:01      2.58    1.76    1.00
  WS02006253WS02006251 CONDUIT     42.45     0  02:16      0.50    0.13    0.66
  WS02006252WS02006251 CONDUIT    200.28     0  02:21      1.97    0.74    0.76
  WS02006251WS02006249 CONDUIT    237.60     0  02:24      0.98    0.69    0.67
  WS02006249WS02006248 CONDUIT    236.15     0  02:25      1.05    1.29    0.66
  WS02006248WS02006247 CONDUIT    234.80     0  02:26      1.02    0.51    0.70
  WS02006247WS02006245 CONDUIT    232.70     0  02:25      0.98    1.85    0.74
  WS02006245WS02006243 CONDUIT    229.80     0  02:41      1.01    0.68    0.76
  WS02006243WS02006242 CONDUIT    230.56     0  02:42      0.83    0.49    0.87
  WS02006242WS02006240 CONDUIT    231.20     0  02:43      0.69    0.92    0.94
  WS02006240WS02006239 CONDUIT    231.95     0  02:44      0.68    0.73    0.93
  WS02006239WS02006238 CONDUIT    232.53     0  02:45      0.67    0.74    1.00
  WS02006238WS02006235 CONDUIT    232.64     0  02:45      1.25    0.52    1.00
  WS02006235WS02006234 CONDUIT    336.37     0  02:49      0.94    3.55    0.98
  WS02006234WS02006232 CONDUIT    336.78     0  02:48      1.13    0.68    0.99
  WS02006232WS02006231 CONDUIT    336.89     0  02:48      0.94    0.71    0.94
  WS02006231WS02006230 CONDUIT    337.65     0  02:47      1.29    5.12    0.86
  WS02006230WS02006229 CONDUIT    348.93     0  02:48      0.91    7.77    1.00
  WS02006228WS02006109 CONDUIT    502.17     0  02:32      1.00    2.19    1.00
  WS02006116WS02004401 CONDUIT    506.57     0  02:35      0.74    0.70    0.82
  WS02006115WS02006116 CONDUIT    507.15     0  02:34      0.83    0.65    0.73
  WS02006113WS02006111 CONDUIT    521.04     0  02:32      2.40    0.62    0.45
  WS02006112WS02006115 CONDUIT    508.55     0  02:33      0.71    0.30    0.86
  WS02006111WS02006112 CONDUIT    506.03     0  02:32      1.42    0.24    0.67
  WS02006110WS02006113 CONDUIT    503.56     0  02:32      1.21    0.46    0.77
  WS02006109WS02006110 CONDUIT    503.40     0  02:32      1.00    0.97    0.99
  WS02004411WS02004412 CONDUIT    504.71     0  02:39      0.90    0.72    0.67
  WS02004401WS02004402 CONDUIT    506.31     0  02:35      0.77    0.61    0.84
  WS02004413WS02003067 CONDUIT    504.51     0  02:40      1.07    0.22    0.58
  WS02004412WS02004413 CONDUIT    504.55     0  02:39      0.79    0.34    0.76
  WS02004410WS02004411 CONDUIT    504.99     0  02:38      0.91    0.69    0.67
  WS02004409WS02004410 CONDUIT    505.50     0  02:37      0.94    0.65    0.65
  WS02004407WS02004409 CONDUIT    506.26     0  02:37      1.43    0.18    0.47
  WS02004406WS02004407 CONDUIT    506.28     0  02:37      1.00    0.23    0.61
  WS02004405WS02004406 CONDUIT    506.30     0  02:36      0.66    1.00    0.94
  WS02004404WS02004405 CONDUIT    506.26     0  02:36      0.84    4.96    0.94
  WS02004403WS02004404 CONDUIT    506.13     0  02:36      0.74    0.37    0.91
  WS02004402WS02004403 CONDUIT    506.15     0  02:35      0.75    0.73    0.86
  WS02004139WS02001211 CONDUIT    380.58     0  03:02      0.69    0.48    0.59
  WS02004138WS02004139 CONDUIT    380.00     0  02:00      2.94    0.08    0.44
  WS02003067WS02003066 CONDUIT    504.53     0  02:40      1.17    0.16    0.41
  WS02001213WS02003059 CONDUIT    388.96     0  03:19      0.68    0.64    0.77
  WS02001212WS02001213 CONDUIT    388.50     0  03:01      1.32    0.60    0.47
  WS02001211WS02001212 CONDUIT    388.22     0  03:02      0.78    0.30    0.65
  WS02003072WS02003073 CONDUIT    906.93     0  02:43      1.71    1.96    0.48
  WS02003069WS02003072 CONDUIT    906.92     0  02:43      1.60    0.44    0.50
  WS02003060WS02003069 CONDUIT    906.61     0  02:42      1.85    0.36    0.45
  WS02003059WS02003060 CONDUIT    389.60     0  03:19      0.93    0.25    0.65
  HS02004901HS02004770 CONDUIT     10.92     0  02:14      0.05    0.04    0.33
  HS02004876HS02004881 CONDUIT     36.84     0  02:17      0.58    0.39    0.09
  HS02004870HS02004876 CONDUIT     29.28     0  02:18      0.41    0.02    0.10
  HS02004842HS02004848 CONDUIT      5.68     0  02:30      0.03    0.00    0.28
  HS02004837HS02004842 CONDUIT      5.87     0  02:31      0.41    0.00    0.29
  HS02004830HS02004837 CONDUIT     24.65     0  02:17      0.45    0.02    0.08
  HS02004824HS02004830 CONDUIT     24.80     0  02:18      0.49    0.03    0.07
  HS02004817HS02004824 CONDUIT     40.27     0  02:21      0.17    0.02    0.40
  HS02004770HS02004777 CONDUIT     55.50     0  02:13      0.23    0.10    0.34
  HS02004799HS02004480 CONDUIT    137.26     0  02:16      0.61    0.17    0.32
  HS02004792HS02004799 CONDUIT    125.46     0  02:15      0.70    0.08    0.26
  HS02004788HS02004792 CONDUIT     73.03     0  02:16      0.85    0.05    0.12
  HS02004785HS02004788 CONDUIT     55.13     0  02:16      0.53    0.42    0.15
  HS02004777HS02004785 CONDUIT     55.08     0  02:15      0.28    0.07    0.28
  HS02004480HS02004478 CONDUIT    162.08     0  02:16      0.98    0.68    0.24
  HS02004479HS02004480 CONDUIT     25.40     0  02:18      0.16    0.02    0.31
  HS02004862HS02004870 CONDUIT     21.39     0  02:19      0.48    0.02    0.06
  HS02004848HS02004852 CONDUIT      8.69     0  02:18      0.32    0.01    0.04
  HS02004856HS02004862 CONDUIT     14.51     0  02:18      0.35    0.01    0.06
  HS02004852HS02004856 CONDUIT      8.65     0  02:19      0.13    0.01    0.09
  HS02004802HS02004478 CONDUIT     56.03     0  02:21      0.31    0.05    0.26
  HS02004478WS02006287 CONDUIT    216.52     0  02:17      1.35    0.06    0.18
  HS02004817HS02004807 CONDUIT     41.45     0  02:23      0.12    0.02    0.52
  HS02004807HS02004802 CONDUIT     55.62     0  02:20      0.26    0.11    0.31
  YS02001759YS02001757 CONDUIT    212.08     0  02:56      0.27    0.15    1.00
  YS02001762YS02001759 CONDUIT    110.90     0  02:56      0.18    0.13    1.00
  YS02001765YS02001762 CONDUIT    111.05     0  02:40      0.23    0.10    1.00
  YS02001770YS02001767 CONDUIT    123.83     0  02:47      0.30    0.49    1.00
  YS02001774YS02001770 CONDUIT     54.33     0  04:41      0.14    0.03    1.00
  YS02001779YS02001774 CONDUIT     53.99     0  04:41      0.07    0.03    1.00
  YS02001649YS02001757 CONDUIT    323.10     0  02:57      0.41    0.20    1.00
  YS02001767YS02001765 CONDUIT    122.69     0  02:44      0.25    0.15    1.00
  YS02006561YS02001783 CONDUIT    347.35     0  02:52      1.84    0.18    0.40
  YS02001783YS02001784 CONDUIT    347.23     0  02:52      1.27    0.48    0.53
  YS02001784YS02001785 CONDUIT    348.27     0  02:52      1.36    0.81    0.51
  YS02001788YS02001790 CONDUIT    348.39     0  02:53      1.92    0.26    0.39
  YS02001790YS02001791 CONDUIT    348.51     0  02:53      2.23    0.38    0.35
  YS02001791YS02001793 CONDUIT    348.52     0  02:53      4.08    0.15    0.23
  YS02001910YS02001907 CONDUIT    108.33     0  03:02      0.49    0.06    0.76
  YS02001786YS02001788 CONDUIT    348.31     0  02:53      1.80    0.67    0.41
  YS02001915YS02001910 CONDUIT    107.98     0  03:00      0.45    0.05    0.55
  YS02001918YS02001915 CONDUIT     36.52     0  03:03      0.44    0.02    0.27
  YS02001923YS02001920 CONDUIT     33.69     0  03:02      0.47    0.02    0.15
  YS02001926YS02001923 CONDUIT     33.65     0  03:01      0.51    0.05    0.14
  YS02001929YS02001926 CONDUIT     33.67     0  03:01      0.54    0.02    0.13
  YS02001920YS02001918 CONDUIT     36.54     0  03:02      0.48    0.04    0.15
  YS02001629YS02163301 CONDUIT     99.67     0  03:05      0.13    0.12    1.00
  YS02001619YS02001622 CONDUIT     81.12     0  02:49      0.66    0.12    0.77
  YS02001622YS02001625 CONDUIT     89.66     0  04:39      0.25    0.05    0.89
  YS02001625YS02001629 CONDUIT     88.28     0  04:38      0.25    0.04    0.89
  YS02163301YS02001633 CONDUIT     88.25     0  03:04      0.11    0.08    1.00
  YS02163601YS02164001 CONDUIT    151.15     0  02:52      0.19    0.13    1.00
  YS02164001YS02001641 CONDUIT    157.74     0  03:04      0.20    0.22    1.00
  YS02001641YS02001644 CONDUIT    162.71     0  03:04      0.21    0.53    1.00
  YS02001647YS02001649 CONDUIT    243.35     0  03:02      0.32    0.13    1.00
  YS02006553YS02006556 CONDUIT    236.51     0  02:55      0.34    0.20    0.84
  YS02006556YS02006558 CONDUIT    236.80     0  02:59      0.33    0.19    0.87
  YSB6556YSB1171       CONDUIT     13.75     0  02:19      0.06    0.01    0.58
  YS02001907YS02006553 CONDUIT    236.46     0  02:55      0.28    0.28    0.96
  YS02006558YS02006561 CONDUIT    353.39     0  02:52      2.40    0.78    0.52
  YS02001633YS02163601 CONDUIT    153.02     0  02:47      0.20    0.16    1.00
  YS02001644YS02001647 CONDUIT    238.53     0  03:04      0.31    0.14    1.00
  YS02001745YS02001748 CONDUIT     95.60     0  05:23      1.42    0.04    0.36
  YS02001748YS02001751 CONDUIT    113.74     0  04:58      1.10    0.06    0.71
  YS02001751YS02001754 CONDUIT    102.97     0  02:48      0.97    0.05    0.91
  YS02001754YS02001757 CONDUIT     99.81     0  02:51      0.33    0.04    1.00
  YS02001882YS02001884 CONDUIT      4.17     0  02:09      0.06    0.00    0.49
  YS02001884YS02001887 CONDUIT     11.59     0  02:06      0.06    0.02    0.58
  YS02001890YS02001895 CONDUIT    130.99     0  02:48      0.30    0.06    0.55
  YS02001895YS02001898 CONDUIT    130.99     0  02:49      0.48    0.23    0.41
  YS02001898YS02001901 CONDUIT    130.93     0  02:49      0.34    0.08    0.49
  YS02001901YS02001904 CONDUIT    130.94     0  02:49      0.30    0.20    0.54
  YS02001904YS02001907 CONDUIT    130.97     0  02:49      0.22    0.05    0.70
  YS02001887YS02001890 CONDUIT    131.17     0  02:48      0.25    0.22    0.63
  YS02001652YS02001649 CONDUIT    135.33     0  02:37      0.32    0.07    1.00
  YS02001655YS02001652 CONDUIT    131.19     0  02:58      1.04    0.06    0.93
  YS02001658YS02001655 CONDUIT    117.25     0  02:59      1.27    0.05    0.71
  YS02001661YS02001658 CONDUIT    139.81     0  04:38      1.48    0.05    0.38
  YS02001664YS02001661 CONDUIT     93.34     0  02:45      1.16    0.03    0.19
  YSB1154YSB6556       CONDUIT     13.53     0  02:17      0.19    0.02    0.47
  YSB1174YSB1171       CONDUIT     12.43     0  02:10      0.06    0.02    0.59
  YSB1171HS02004479    CONDUIT     25.16     0  02:17      0.54    0.02    0.46
  HS02004881HS02006253 CONDUIT     41.20     0  02:17      1.70    0.01    0.11
  YS02001793JiankangQianchi CONDUIT    348.52     0  02:53     13.62    0.03    0.50
  YS02001757CaochengTiaoxuchi CONDUIT    581.28     0  02:58      1.24    0.26    0.83
  WSF200WS02003060     CONDUIT    504.61     0  02:40      1.55    0.11    0.33
  1                    CONDUIT    908.77     0  02:44      3.24    0.32    0.39
  2                    CONDUIT      0.00     0  00:00      0.00    0.00    0.00
  3                    CONDUIT    499.37     0  02:37      9.78    0.80    0.68
  4                    CONDUIT      0.00     0  00:00      0.00    0.00    0.00
  CC-Pump-1            PUMP       200.00     0  04:40              1.00
  CC-Pump-2            PUMP       200.00     0  02:21              1.00
  JK-Pump-1            PUMP       300.00     0  00:00              1.00
  JK-Pump-2            PUMP       300.00     0  02:30              1.00
  XR-Pump-1            PUMP        95.00     0  00:00              1.00
  XR-Pump-2            PUMP        95.00     0  02:00              1.00
  XR-Pump-3            PUMP        95.00     0  00:00              1.00
  XR-Pump-4            PUMP        95.00     0  02:00              1.00
  
  
  ***************************
  Flow Classification Summary
  ***************************
  
  -------------------------------------------------------------------------------------
                      Adjusted    ---------- Fraction of Time in Flow Class ---------- 
                       /Actual         Up    Down  Sub   Sup   Up    Down  Norm  Inlet 
  Conduit               Length    Dry  Dry   Dry   Crit  Crit  Crit  Crit  Ltd   Ctrl  
  -------------------------------------------------------------------------------------
  WS02003066WSF200        1.00   0.06  0.00  0.00  0.00  0.94  0.00  0.00  0.72  0.00
  WS02006287WS02006284    1.00   0.04  0.01  0.00  0.67  0.28  0.00  0.00  0.77  0.00
  WS02006284WS02006280    1.00   0.04  0.00  0.00  0.00  0.00  0.00  0.96  0.00  0.00
  WS02006280WS02006229    1.00   0.04  0.00  0.00  0.00  0.00  0.00  0.96  0.00  0.00
  WS02006229WS02006228    1.00   0.00  0.00  0.00  0.99  0.00  0.00  0.01  0.00  0.00
  WS02006256WS02006235    1.00   0.00  0.00  0.00  1.00  0.00  0.00  0.00  0.00  0.00
  WS02006253WS02006251    1.00   0.03  0.01  0.00  0.96  0.00  0.00  0.00  0.00  0.00
  WS02006252WS02006251    1.00   0.08  0.00  0.00  0.00  0.00  0.92  0.00  0.00  0.00
  WS02006251WS02006249    1.00   0.00  0.00  0.00  1.00  0.00  0.00  0.00  0.26  0.00
  WS02006249WS02006248    1.00   0.00  0.02  0.00  0.91  0.00  0.07  0.00  0.00  0.00
  WS02006248WS02006247    1.00   0.02  0.00  0.00  0.98  0.00  0.00  0.00  0.16  0.00
  WS02006247WS02006245    1.00   0.02  0.00  0.00  0.98  0.00  0.00  0.00  0.00  0.00
  WS02006245WS02006243    1.00   0.01  0.00  0.00  0.94  0.00  0.00  0.04  0.01  0.00
  WS02006243WS02006242    1.00   0.01  0.00  0.00  0.99  0.00  0.00  0.00  0.26  0.00
  WS02006242WS02006240    1.00   0.00  0.00  0.00  1.00  0.00  0.00  0.00  0.00  0.00
  WS02006240WS02006239    1.00   0.00  0.00  0.00  0.96  0.00  0.00  0.04  0.01  0.00
  WS02006239WS02006238    1.00   0.00  0.00  0.00  1.00  0.00  0.00  0.00  0.00  0.00
  WS02006238WS02006235    1.00   0.00  0.00  0.00  1.00  0.00  0.00  0.00  0.00  0.00
  WS02006235WS02006234    1.00   0.00  0.00  0.00  0.96  0.00  0.04  0.00  0.00  0.00
  WS02006234WS02006232    1.00   0.00  0.00  0.00  1.00  0.00  0.00  0.00  0.16  0.00
  WS02006232WS02006231    1.00   0.00  0.00  0.00  0.99  0.00  0.00  0.00  0.00  0.00
  WS02006231WS02006230    1.00   0.00  0.00  0.00  0.44  0.00  0.56  0.00  0.00  0.00
  WS02006230WS02006229    1.00   0.00  0.00  0.00  0.99  0.00  0.00  0.01  0.01  0.00
  WS02006228WS02006109    1.00   0.00  0.00  0.00  1.00  0.00  0.00  0.00  0.00  0.00
  WS02006116WS02004401    1.00   0.02  0.00  0.00  0.98  0.00  0.00  0.00  0.00  0.00
  WS02006115WS02006116    1.00   0.02  0.00  0.00  0.97  0.00  0.00  0.01  0.00  0.00
  WS02006113WS02006111    1.00   0.02  0.00  0.00  0.00  0.98  0.00  0.00  0.10  0.00
  WS02006112WS02006115    1.00   0.02  0.00  0.00  0.97  0.00  0.00  0.00  0.00  0.00
  WS02006111WS02006112    1.00   0.02  0.00  0.00  0.98  0.00  0.00  0.00  0.98  0.00
  WS02006110WS02006113    1.00   0.01  0.01  0.00  0.98  0.00  0.00  0.00  0.00  0.00
  WS02006109WS02006110    1.00   0.00  0.01  0.00  0.98  0.00  0.01  0.00  0.00  0.00
  WS02004411WS02004412    1.00   0.04  0.00  0.00  0.96  0.00  0.00  0.00  0.00  0.00
  WS02004401WS02004402    1.00   0.02  0.00  0.00  0.98  0.00  0.00  0.00  0.00  0.00
  WS02004413WS02003067    1.00   0.04  0.01  0.00  0.00  0.00  0.95  0.00  0.00  0.00
  WS02004412WS02004413    1.00   0.04  0.00  0.00  0.96  0.00  0.00  0.00  0.03  0.00
  WS02004410WS02004411    1.00   0.04  0.00  0.00  0.96  0.00  0.00  0.00  0.04  0.00
  WS02004409WS02004410    1.00   0.04  0.00  0.00  0.96  0.00  0.00  0.00  0.04  0.00
  WS02004407WS02004409    1.00   0.04  0.00  0.00  0.96  0.00  0.00  0.00  0.89  0.00
  WS02004406WS02004407    1.00   0.00  0.04  0.00  0.96  0.00  0.00  0.00  0.00  0.00
  WS02004405WS02004406    1.00   0.00  0.00  0.00  1.00  0.00  0.00  0.00  0.00  0.00
  WS02004404WS02004405    1.00   0.00  0.00  0.00  1.00  0.00  0.00  0.00  0.00  0.00
  WS02004403WS02004404    1.00   0.00  0.03  0.00  0.97  0.00  0.00  0.00  0.01  0.00
  WS02004402WS02004403    1.00   0.02  0.00  0.00  0.98  0.00  0.00  0.00  0.00  0.00
  WS02004139WS02001211    1.00   0.00  0.00  0.00  1.00  0.00  0.00  0.00  0.00  0.00
  WS02004138WS02004139    1.00   0.00  0.00  0.00  0.99  0.01  0.00  0.00  1.00  0.00
  WS02003067WS02003066    1.00   0.05  0.00  0.00  0.94  0.00  0.00  0.00  0.00  0.00
  WS02001213WS02003059    1.00   0.00  0.00  0.00  0.99  0.00  0.00  0.00  0.00  0.00
  WS02001212WS02001213    1.00   0.00  0.00  0.00  0.93  0.00  0.06  0.00  0.00  0.00
  WS02001211WS02001212    1.00   0.00  0.00  0.00  1.00  0.00  0.00  0.00  0.00  0.00
  WS02003072WS02003073    1.00   0.00  0.00  0.00  0.00  0.00  0.00  1.00  0.00  0.00
  WS02003069WS02003072    1.00   0.00  0.00  0.00  0.99  0.01  0.00  0.00  0.23  0.00
  WS02003060WS02003069    1.00   0.00  0.00  0.00  0.99  0.01  0.00  0.00  0.20  0.00
  WS02003059WS02003060    1.00   0.00  0.00  0.00  1.00  0.00  0.00  0.00  0.01  0.00
  HS02004901HS02004770    1.00   0.04  0.00  0.00  0.96  0.00  0.00  0.00  0.02  0.00
  HS02004876HS02004881    1.00   0.02  0.00  0.00  0.98  0.00  0.00  0.00  0.00  0.00
  HS02004870HS02004876    1.00   0.01  0.00  0.00  0.99  0.00  0.00  0.00  0.95  0.00
  HS02004842HS02004848    1.00   0.00  0.04  0.00  0.96  0.00  0.00  0.00  0.68  0.00
  HS02004837HS02004842    1.00   0.00  0.00  0.00  0.99  0.01  0.00  0.00  0.11  0.00
  HS02004830HS02004837    1.00   0.00  0.00  0.00  1.00  0.00  0.00  0.00  0.99  0.00
  HS02004824HS02004830    1.00   0.00  0.00  0.00  1.00  0.00  0.00  0.00  0.00  0.00
  HS02004817HS02004824    1.00   0.00  0.00  0.00  1.00  0.00  0.00  0.00  1.00  0.00
  HS02004770HS02004777    1.00   0.00  0.04  0.00  0.96  0.00  0.00  0.00  0.07  0.00
  HS02004799HS02004480    1.00   0.00  0.02  0.00  0.95  0.00  0.03  0.00  0.00  0.00
  HS02004792HS02004799    1.00   0.00  0.00  0.00  0.99  0.01  0.00  0.00  0.98  0.00
  HS02004788HS02004792    1.00   0.00  0.00  0.00  0.99  0.01  0.00  0.00  0.98  0.00
  HS02004785HS02004788    1.00   0.00  0.00  0.00  1.00  0.00  0.00  0.00  0.00  0.00
  HS02004777HS02004785    1.00   0.00  0.00  0.00  1.00  0.00  0.00  0.00  0.20  0.00
  HS02004480HS02004478    1.00   0.05  0.00  0.00  0.71  0.00  0.00  0.24  0.00  0.00
  HS02004479HS02004480    1.00   0.03  0.00  0.00  0.97  0.00  0.00  0.00  0.15  0.00
  HS02004862HS02004870    1.00   0.00  0.00  0.00  1.00  0.00  0.00  0.00  0.06  0.00
  HS02004848HS02004852    1.00   0.04  0.00  0.00  0.96  0.00  0.00  0.00  0.71  0.00
  HS02004856HS02004862    1.00   0.00  0.06  0.00  0.94  0.00  0.00  0.00  0.75  0.00
  HS02004852HS02004856    1.00   0.04  0.01  0.00  0.95  0.00  0.00  0.00  0.83  0.00
  HS02004802HS02004478    1.00   0.04  0.00  0.00  0.95  0.00  0.00  0.00  0.01  0.00
  HS02004478WS02006287    1.00   0.05  0.00  0.00  0.86  0.09  0.00  0.00  0.77  0.00
  HS02004817HS02004807    1.00   0.00  0.04  0.00  0.96  0.00  0.00  0.00  0.00  0.00
  HS02004807HS02004802    1.00   0.04  0.00  0.00  0.95  0.00  0.00  0.00  0.01  0.00
  YS02001759YS02001757    1.00   0.00  0.00  0.00  1.00  0.00  0.00  0.00  0.17  0.00
  YS02001762YS02001759    1.00   0.00  0.00  0.00  1.00  0.00  0.00  0.00  0.04  0.00
  YS02001765YS02001762    1.00   0.00  0.00  0.00  1.00  0.00  0.00  0.00  0.22  0.00
  YS02001770YS02001767    1.00   0.00  0.00  0.00  1.00  0.00  0.00  0.00  0.00  0.00
  YS02001774YS02001770    1.00   0.00  0.05  0.00  0.95  0.00  0.00  0.00  0.07  0.00
  YS02001779YS02001774    1.00   0.00  0.00  0.00  1.00  0.00  0.00  0.00  0.26  0.00
  YS02001649YS02001757    1.00   0.00  0.00  0.00  1.00  0.00  0.00  0.00  0.19  0.00
  YS02001767YS02001765    1.00   0.00  0.00  0.00  1.00  0.00  0.00  0.00  0.01  0.00
  YS02006561YS02001783    1.00   0.06  0.00  0.00  0.00  0.93  0.00  0.00  0.73  0.00
  YS02001783YS02001784    1.00   0.00  0.06  0.00  0.94  0.00  0.00  0.00  0.00  0.00
  YS02001784YS02001785    1.00   0.00  0.00  0.00  1.00  0.00  0.00  0.00  0.25  0.00
  YS02001788YS02001790    1.00   0.00  0.00  0.00  0.07  0.93  0.00  0.00  0.75  0.00
  YS02001790YS02001791    1.00   0.00  0.00  0.00  0.02  0.98  0.00  0.00  0.56  0.00
  YS02001791YS02001793    1.00   0.00  0.00  0.00  0.00  1.00  0.00  0.00  0.00  0.00
  YS02001910YS02001907    1.00   0.00  0.00  0.00  0.97  0.00  0.00  0.02  0.13  0.00
  YS02001786YS02001788    1.00   0.00  0.00  0.00  0.07  0.93  0.00  0.00  0.00  0.00
  YS02001915YS02001910    1.00   0.00  0.00  0.00  0.99  0.01  0.00  0.00  0.24  0.00
  YS02001918YS02001915    1.00   0.00  0.01  0.00  0.98  0.01  0.00  0.00  0.82  0.00
  YS02001923YS02001920    1.00   0.00  0.00  0.00  1.00  0.00  0.00  0.00  1.00  0.00
  YS02001926YS02001923    1.00   0.00  0.03  0.00  0.00  0.00  0.97  0.00  0.00  0.00
  YS02001929YS02001926    1.00   0.00  0.04  0.00  0.96  0.00  0.00  0.00  0.87  0.00
  YS02001920YS02001918    1.00   0.00  0.01  0.00  0.99  0.00  0.00  0.00  0.00  0.00
  YS02001629YS02163301    1.00   0.06  0.00  0.00  0.94  0.00  0.00  0.00  0.00  0.00
  YS02001619YS02001622    1.00   0.04  0.00  0.00  0.96  0.00  0.00  0.00  0.00  0.00
  YS02001622YS02001625    1.00   0.04  0.00  0.00  0.96  0.00  0.00  0.00  0.13  0.00
  YS02001625YS02001629    1.00   0.04  0.02  0.00  0.92  0.00  0.02  0.00  0.00  0.00
  YS02163301YS02001633    1.00   0.00  0.06  0.00  0.94  0.00  0.00  0.00  0.00  0.00
  YS02163601YS02164001    1.00   0.00  0.03  0.00  0.97  0.00  0.00  0.00  0.00  0.00
  YS02164001YS02001641    1.00   0.01  0.03  0.00  0.97  0.00  0.00  0.00  0.07  0.00
  YS02001641YS02001644    1.00   0.00  0.01  0.00  0.99  0.00  0.00  0.00  0.00  0.00
  YS02001647YS02001649    1.00   0.00  0.06  0.00  0.94  0.00  0.00  0.00  0.01  0.00
  YS02006553YS02006556    1.00   0.01  0.00  0.00  0.99  0.00  0.00  0.00  0.03  0.00
  YS02006556YS02006558    1.00   0.00  0.00  0.00  1.00  0.00  0.00  0.00  0.00  0.00
  YSB6556YSB1171          1.00   0.03  0.01  0.00  0.96  0.00  0.00  0.00  0.00  0.00
  YS02001907YS02006553    1.00   0.00  0.02  0.00  0.98  0.00  0.00  0.00  0.00  0.00
  YS02006558YS02006561    1.00   0.06  0.00  0.00  0.00  0.94  0.00  0.00  0.69  0.00
  YS02001633YS02163601    1.00   0.00  0.01  0.00  0.99  0.00  0.00  0.00  0.19  0.00
  YS02001644YS02001647    1.00   0.00  0.06  0.00  0.94  0.00  0.00  0.00  0.00  0.00
  YS02001745YS02001748    1.00   0.00  0.00  0.00  0.86  0.02  0.00  0.12  0.34  0.00
  YS02001748YS02001751    1.00   0.00  0.00  0.00  0.97  0.03  0.00  0.00  0.24  0.00
  YS02001751YS02001754    1.00   0.00  0.00  0.00  0.93  0.00  0.00  0.07  0.02  0.00
  YS02001754YS02001757    1.00   0.00  0.00  0.00  0.99  0.01  0.00  0.00  0.26  0.00
  YS02001882YS02001884    1.00   0.05  0.00  0.00  0.94  0.00  0.00  0.00  0.00  0.00
  YS02001884YS02001887    1.00   0.03  0.01  0.00  0.96  0.00  0.00  0.00  0.00  0.00
  YS02001890YS02001895    1.00   0.00  0.06  0.00  0.94  0.00  0.00  0.00  0.00  0.00
  YS02001895YS02001898    1.00   0.06  0.00  0.00  0.93  0.00  0.01  0.00  0.00  0.00
  YS02001898YS02001901    1.00   0.06  0.00  0.00  0.94  0.00  0.00  0.00  0.02  0.00
  YS02001901YS02001904    1.00   0.06  0.00  0.00  0.94  0.00  0.00  0.00  0.00  0.00
  YS02001904YS02001907    1.00   0.00  0.05  0.00  0.94  0.00  0.00  0.00  0.00  0.00
  YS02001887YS02001890    1.00   0.00  0.00  0.00  0.97  0.00  0.02  0.00  0.00  0.00
  YS02001652YS02001649    1.00   0.00  0.00  0.00  1.00  0.00  0.00  0.00  0.25  0.00
  YS02001655YS02001652    1.00   0.00  0.00  0.00  0.93  0.00  0.00  0.07  0.02  0.00
  YS02001658YS02001655    1.00   0.00  0.05  0.00  0.92  0.03  0.00  0.00  0.11  0.00
  YS02001661YS02001658    1.00   0.05  0.00  0.00  0.86  0.09  0.00  0.00  0.29  0.00
  YS02001664YS02001661    1.00   0.04  0.00  0.00  0.71  0.25  0.00  0.00  0.86  0.00
  YSB1154YSB6556          1.00   0.04  0.00  0.00  0.96  0.00  0.00  0.00  0.02  0.00
  YSB1174YSB1171          1.00   0.03  0.01  0.00  0.96  0.00  0.00  0.00  0.00  0.00
  YSB1171HS02004479       1.00   0.03  0.00  0.00  0.97  0.00  0.00  0.00  0.13  0.00
  HS02004881HS02006253    1.00   0.03  0.00  0.00  0.90  0.00  0.00  0.06  0.70  0.00
  YS02001793JiankangQianchi    1.00   0.00  0.00  0.00  0.02  0.98  0.00  0.00  0.02  0.00
  YS02001757CaochengTiaoxuchi    1.00   0.00  0.08  0.00  0.92  0.00  0.00  0.00  0.00  0.00
  WSF200WS02003060        1.00   0.00  0.06  0.00  0.94  0.00  0.00  0.00  0.30  0.00
  1                       1.00   0.00  0.00  0.00  0.00  1.00  0.00  0.00  0.20  0.00
  2                       1.00   1.00  0.00  0.00  0.00  0.00  0.00  0.00  0.00  0.00
  3                       1.00   0.05  0.00  0.00  0.00  0.95  0.00  0.00  0.26  0.00
  4                       1.00   1.00  0.00  0.00  0.00  0.00  0.00  0.00  0.00  0.00
  
  
  *************************
  Conduit Surcharge Summary
  *************************
  
  ----------------------------------------------------------------------------
                                                           Hours        Hours 
                         --------- Hours Full --------   Above Full   Capacity
  Conduit                Both Ends  Upstream  Dnstream   Normal Flow   Limited
  ----------------------------------------------------------------------------
  WS02006229WS02006228        0.93      0.99      0.93      5.58         0.93
  WS02006256WS02006235        5.75      5.75      6.55      5.82         0.01
  WS02006249WS02006248        0.01      0.01      0.01      5.49         0.01
  WS02006247WS02006245        0.01      0.01      0.01      5.49         0.01
  WS02006239WS02006238        0.04      0.04      0.31      0.01         0.01
  WS02006238WS02006235        0.26      0.26      0.47      0.01         0.01
  WS02006235WS02006234        0.01      0.01      0.15      5.76         0.01
  WS02006234WS02006232        0.01      0.01      0.70      0.01         0.01
  WS02006232WS02006231        0.01      0.01      0.70      0.01         0.01
  WS02006231WS02006230        0.01      0.01      0.01      5.76         0.01
  WS02006230WS02006229        1.59      5.18      1.59      5.84         1.59
  WS02006228WS02006109        0.96      1.20      0.96      5.61         0.96
  WS02006112WS02006115        0.01      0.01      0.26      0.01         0.01
  WS02006111WS02006112        0.01      0.01      5.52      0.01         0.01
  WS02006110WS02006113        0.01      0.01      1.06      0.01         0.01
  WS02006109WS02006110        0.01      0.01      1.20      0.01         0.01
  WS02004404WS02004405        0.01      0.01      0.01      5.63         0.01
  WS02003072WS02003073        0.01      0.01      0.01      5.54         0.01
  YS02001759YS02001757        5.23      5.23      5.36      0.01         0.01
  YS02001762YS02001759        5.17      5.17      5.23      0.01         0.02
  YS02001765YS02001762        5.07      5.07      5.17      0.01         0.01
  YS02001770YS02001767        4.60      4.61      4.76      0.01         0.57
  YS02001774YS02001770        4.07      4.07      5.13      0.01         0.01
  YS02001779YS02001774        0.37      0.37      5.13      0.01         0.01
  YS02001649YS02001757        5.19      5.19      5.36      0.01         0.01
  YS02001767YS02001765        4.76      4.76      5.07      0.01         0.02
  YS02001629YS02163301        3.73      3.73      4.25      0.01         0.01
  YS02001622YS02001625        0.01      0.01      2.73      0.01         0.01
  YS02001625YS02001629        0.01      0.01      2.73      0.01         0.01
  YS02163301YS02001633        4.25      4.25      5.08      0.01         0.01
  YS02163601YS02164001        5.06      5.06      5.19      0.01         0.01
  YS02164001YS02001641        5.06      5.06      5.11      0.01         0.01
  YS02001641YS02001644        5.11      5.11      5.12      0.01         0.32
  YS02001647YS02001649        2.57      2.57      5.19      0.01         0.01
  YS02001633YS02163601        5.01      5.01      5.19      0.01         0.01
  YS02001644YS02001647        2.57      2.57      5.12      0.01         0.01
  YS02001751YS02001754        0.01      0.01      0.98      0.01         0.01
  YS02001754YS02001757        2.63      2.63      5.36      0.01         0.01
  YS02001652YS02001649        2.87      2.87      5.19      0.01         0.01
  YS02001655YS02001652        0.01      0.01      2.16      0.01         0.01
  YS02001793JiankangQianchi        0.01      0.01      0.09      0.01         0.01
  YS02001757CaochengTiaoxuchi        0.01      0.01      5.36      0.01         0.01
  
  
  ***************
  Pumping Summary
  ***************
  
  ---------------------------------------------------------------------------------------------------------
                                                  Min       Avg       Max     Total     Power    % Time Off
                        Percent   Number of      Flow      Flow      Flow    Volume     Usage    Pump Curve
  Pump                 Utilized   Start-Ups       LPS       LPS       LPS  10^6 ltr     Kw-hr    Low   High
  ---------------------------------------------------------------------------------------------------------
  CC-Pump-1               42.55           1      0.00    194.94    200.00     2.340      6.19    0.0    0.0
  CC-Pump-2               30.61           1      0.00    190.97    200.00     1.636      5.49    0.0   37.4
  JK-Pump-1              100.00           1      0.00    161.00    300.00     3.398     66.56    0.0    0.0
  JK-Pump-2               76.59           1      0.00    163.76    300.00     3.212     63.64    0.0    0.0
  XR-Pump-1              100.00           1      0.00     95.00     95.00     2.679     53.29    0.0    0.0
  XR-Pump-2               36.17           1      0.00     91.84     95.00     0.912     17.49    0.0    0.0
  XR-Pump-3              100.00           1      0.00     95.00     95.00     2.679     53.29    0.0    0.0
  XR-Pump-4               76.59           1      0.00     94.77     95.00     2.023     45.98    0.0    0.0
  

  Analysis begun on:  Tue Dec 21 18:31:51 2021
  Analysis ended on:  Tue Dec 21 18:31:54 2021
  Total elapsed time: 00:00:03