
  EPA STORM WATER MANAGEMENT MODEL - VERSION 5.1 (Build 5.3.0.dev0)
  --------------------------------------------------------------

  WARNING 04: minimum elevation drop used for Conduit WS02004404WS02004405
  WARNING 03: negative offset ignored for Link YS02001904YS02001907
  
  *********************************************************
  NOTE: The summary statistics displayed in this report are
  based on results found at every computational time step,  
  not just on results from each reporting time step.
  *********************************************************
  
  ****************
  Analysis Options
  ****************
  Flow Units ............... LPS
  Process Models:
    Rainfall/Runoff ........ YES
    RDII ................... NO
    Snowmelt ............... NO
    Groundwater ............ NO
    Flow Routing ........... YES
    Ponding Allowed ........ NO
    Water Quality .......... NO
  Infiltration Method ...... HORTON
  Flow Routing Method ...... DYNWAVE
  Surcharge Method ......... EXTRAN
  Starting Date ............ 08/28/2015 08:00:00
  Ending Date .............. 08/28/2015 15:50:00
  Antecedent Dry Days ...... 8.0
  Report Time Step ......... 00:01:00
  Wet Time Step ............ 00:01:00
  Dry Time Step ............ 00:01:00
  Routing Time Step ........ 5.00 sec
  Variable Time Step ....... YES
  Maximum Trials ........... 8
  Number of Threads ........ 4
  Head Tolerance ........... 0.001500 m
  
  
  **************************        Volume         Depth
  Runoff Quantity Continuity     hectare-m            mm
  **************************     ---------       -------
  Total Precipitation ......         3.415         7.477
  Evaporation Loss .........         0.000         0.000
  Infiltration Loss ........         0.866         1.897
  Surface Runoff ...........         1.613         3.532
  Final Storage ............         0.937         2.051
  Continuity Error (%) .....        -0.018
  
  
  **************************        Volume        Volume
  Flow Routing Continuity        hectare-m      10^6 ltr
  **************************     ---------     ---------
  Dry Weather Inflow .......         0.616         6.165
  Wet Weather Inflow .......         1.612        16.122
  Groundwater Inflow .......         0.000         0.000
  RDII Inflow ..............         0.000         0.000
  External Inflow ..........         0.102         1.024
  External Outflow .........         1.524        15.236
  Flooding Loss ............         0.303         3.025
  Evaporation Loss .........         0.000         0.000
  Exfiltration Loss ........         0.000         0.000
  Initial Stored Volume ....         0.076         0.761
  Final Stored Volume ......         0.621         6.206
  Continuity Error (%) .....        -1.649
  
  
  *************************
  Highest Continuity Errors
  *************************
  Node YS02001774 (33.34%)
  Node HS02004842 (24.06%)
  Node YS02001884 (16.74%)
  Node JK-storage (-8.05%)
  Node YSB1171 (5.31%)
  
  
  ***************************
  Time-Step Critical Elements
  ***************************
  Link WS02006252WS02006251 (77.48%)
  Link 3 (17.03%)
  Link WS02006280WS02006229 (1.62%)
  
  
  ********************************
  Highest Flow Instability Indexes
  ********************************
  Link WS02006113WS02006111 (49)
  Link YS02001779YS02001774 (31)
  Link YS02001793JiankangQianchi (30)
  Link WS02006111WS02006112 (29)
  Link YS02001774YS02001770 (28)
  
  
  *************************
  Routing Time Step Summary
  *************************
  Minimum Time Step           :     0.31 sec
  Average Time Step           :     0.85 sec
  Maximum Time Step           :     5.00 sec
  Percent in Steady State     :    -0.00
  Average Iterations per Step :     4.34
  Percent Not Converging      :    24.61
  
  
  ***************************
  Subcatchment Runoff Summary
  ***************************
  
  ------------------------------------------------------------------------------------------------------------------------------
                            Total      Total      Total      Total     Imperv       Perv      Total       Total     Peak  Runoff
                           Precip      Runon       Evap      Infil     Runoff     Runoff     Runoff      Runoff   Runoff   Coeff
  Subcatchment                 mm         mm         mm         mm         mm         mm         mm    10^6 ltr      LPS
  ------------------------------------------------------------------------------------------------------------------------------
  sub0                       7.48       0.00       0.00       0.52       5.69       0.00       5.69        0.00     2.10   0.761
  sub1                       7.48       0.00       0.00       0.82       5.40       0.00       5.40        0.04    11.21   0.722
  sub2                       7.48       0.00       0.00       2.77       3.80       0.00       3.80        0.04     9.93   0.509
  sub3                       7.48       0.00       0.00       2.77       3.77       0.00       3.77        0.08    20.49   0.504
  sub4                       7.48       0.00       0.00       0.82       5.26       0.00       5.26        0.11    23.03   0.703
  sub5                       7.48       0.00       0.00       0.52       5.64       0.00       5.64        0.06    19.93   0.754
  sub7                       7.48       0.00       0.00       0.67       5.55       0.00       5.55        0.02     7.00   0.742
  sub8                       7.48       0.00       0.00       0.67       5.54       0.00       5.54        0.04    12.37   0.741
  sub9                       7.48       0.00       0.00       0.67       5.54       0.00       5.54        0.03     9.17   0.741
  sub10                      7.48       0.00       0.00       0.60       5.59       0.00       5.59        0.06    19.87   0.747
  sub11                      7.48       0.00       0.00       0.60       5.60       0.00       5.60        0.07    23.25   0.750
  sub12                      7.48       0.00       0.00       0.97       5.32       0.00       5.32        0.05    19.54   0.711
  sub14                      7.48       0.00       0.00       0.67       5.54       0.00       5.54        0.05    17.92   0.740
  sub15                      7.48       0.00       0.00       2.24       4.26       0.00       4.26        0.07    24.34   0.569
  sub16                      7.48       0.00       0.00       2.47       4.09       0.00       4.09        0.04    17.23   0.547
  sub17                      7.48       0.00       0.00       2.39       4.15       0.00       4.15        0.04    13.93   0.555
  sub22                      7.48       0.00       0.00       3.22       3.47       0.00       3.47        0.22    79.48   0.465
  sub23                      7.48       0.00       0.00       2.77       3.84       0.00       3.84        0.18    67.68   0.514
  sub60                      7.48       0.00       0.00       0.90       3.98       0.00       3.98        1.21   118.33   0.532
  sub61                      7.48       0.00       0.00       1.27       4.18       0.00       4.18        1.29   148.08   0.559
  sub62                      7.48       0.00       0.00       0.60       4.51       0.00       4.51        1.39   151.44   0.603
  sub63                      7.48       0.00       0.00       2.17       3.70       0.00       3.70        1.12   138.08   0.495
  sub64                      7.48       0.00       0.00       1.12       3.81       0.00       3.81        1.16   112.42   0.510
  sub65                      7.48       0.00       0.00       0.97       3.86       0.00       3.86        1.19   114.11   0.517
  sub66                      7.48       0.00       0.00       2.17       3.31       0.00       3.31        1.01   102.94   0.442
  sub67                      7.48       0.00       0.00       0.60       4.88       0.00       4.88        1.51   194.00   0.653
  sub68                      7.48       0.00       0.00       1.05       4.43       0.00       4.43        1.36   163.63   0.592
  sub69                      7.48       0.00       0.00       1.12       4.71       0.00       4.71        1.10   162.15   0.630
  sub70                      7.48       4.81       0.00       4.18       5.98       0.00       5.98        1.37   134.81   0.487
  sub71                      7.48       0.00       0.00       0.60       4.34       0.00       4.34        1.02   105.79   0.580
  sub72                      7.48       0.00       0.00       0.52       3.19       0.00       3.19        0.65    51.17   0.426
  sub73                      7.48       5.82       0.00       4.52       6.24       0.00       6.24        1.47   117.64   0.469
  sub74                      7.48       0.00       0.00       5.61       1.41       0.00       1.41        0.57    90.39   0.189
  
  
  ******************
  Node Depth Summary
  ******************
  
  ---------------------------------------------------------------------------------
                                 Average  Maximum  Maximum  Time of Max    Reported
                                   Depth    Depth      HGL   Occurrence   Max Depth
  Node                 Type       Meters   Meters   Meters  days hr:min      Meters
  ---------------------------------------------------------------------------------
  WS02001211           JUNCTION     0.70     0.80     5.64     0  02:35        0.80
  WS02001212           JUNCTION     0.41     0.51     5.58     0  02:35        0.51
  WS02001213           JUNCTION     0.64     0.77     5.53     0  02:34        0.77
  WS02003069           JUNCTION     0.43     0.60     5.18     0  02:33        0.60
  WS02003072           JUNCTION     0.50     0.65     5.03     0  02:34        0.65
  WS02003073           JUNCTION     0.30     0.40     4.47     0  02:34        0.40
  WS02003060           JUNCTION     0.39     0.53     5.46     0  02:33        0.53
  WS02003066           JUNCTION     0.21     0.31     5.86     0  02:30        0.31
  WS02003059           JUNCTION     0.69     0.82     5.51     0  02:34        0.82
  WS02003067           JUNCTION     0.53     0.72     6.04     0  02:30        0.72
  WS02004401           JUNCTION     0.62     0.89     6.89     0  02:27        0.89
  WS02004402           JUNCTION     0.65     0.92     6.88     0  02:27        0.92
  WS02004403           JUNCTION     0.67     0.93     6.86     0  02:27        0.93
  WS02004404           JUNCTION     0.75     1.00     6.85     0  02:27        1.00
  WS02004406           JUNCTION     0.76     0.98     6.81     0  02:27        0.98
  WS02004409           JUNCTION     0.44     0.70     6.47     0  02:29        0.70
  WS02004410           JUNCTION     0.46     0.71     6.43     0  02:29        0.71
  WS02004411           JUNCTION     0.47     0.72     6.40     0  02:30        0.72
  WS02004412           JUNCTION     0.49     0.72     6.36     0  02:30        0.72
  WS02004413           JUNCTION     0.65     0.88     6.35     0  02:30        0.88
  WS02004405           JUNCTION     0.75     0.99     6.84     0  02:27        0.99
  WS02006109           JUNCTION     0.69     1.02     7.64     0  02:24        1.02
  WS02006110           JUNCTION     0.69     0.95     7.54     0  02:24        0.95
  WS02006111           JUNCTION     0.20     0.30     7.01     0  02:24        0.30
  WS02006112           JUNCTION     0.78     1.15     7.03     0  02:29        1.10
  WS02006113           JUNCTION     0.30     0.48     7.37     0  02:24        0.48
  WS02006115           JUNCTION     0.51     0.80     6.94     0  02:27        0.80
  WS02006116           JUNCTION     0.59     0.87     6.91     0  02:28        0.87
  WS02006230           JUNCTION     0.63     1.07     7.82     0  02:25        1.07
  WS02006231           JUNCTION     0.42     0.73     7.86     0  02:25        0.73
  WS02006232           JUNCTION     0.55     0.86     7.90     0  02:25        0.86
  WS02006234           JUNCTION     0.45     0.79     7.94     0  02:25        0.79
  WS02006235           JUNCTION     0.48     0.81     7.97     0  02:25        0.81
  WS02006238           JUNCTION     0.51     0.84     7.98     0  02:25        0.84
  WS02006240           JUNCTION     0.42     0.73     8.03     0  02:25        0.73
  WS02006242           JUNCTION     0.49     0.78     8.05     0  02:26        0.78
  WS02006243           JUNCTION     0.38     0.66     8.08     0  02:26        0.66
  WS02006245           JUNCTION     0.37     0.61     8.10     0  02:26        0.61
  WS02006247           JUNCTION     0.40     0.61     8.11     0  02:26        0.61
  WS02006248           JUNCTION     0.35     0.54     8.13     0  02:26        0.54
  WS02006249           JUNCTION     0.39     0.55     8.15     0  02:27        0.55
  WS02006239           JUNCTION     0.47     0.79     8.00     0  02:25        0.79
  WS02006251           JUNCTION     0.38     0.52     8.19     0  02:27        0.52
  WS02006252           JUNCTION     0.32     0.35     8.59     0  02:14        0.35
  WS02006253           JUNCTION     0.40     0.54     8.19     0  02:27        0.54
  WS02006256           JUNCTION     0.76     1.21     8.15     0  02:25        1.21
  WS02004138           JUNCTION     0.17     0.19     7.44     0  02:01        0.19
  WS02004407           JUNCTION     0.20     0.31     6.62     0  02:27        0.31
  WS02006228           JUNCTION     0.68     1.07     7.72     0  02:24        1.07
  WS02006229           JUNCTION     0.65     1.07     7.77     0  02:24        1.07
  WS02006280           JUNCTION     0.06     0.18     8.45     0  02:14        0.18
  WS02006284           JUNCTION     0.36     0.53     8.92     0  02:14        0.53
  WS02006287           JUNCTION     0.09     0.26     9.21     0  02:14        0.26
  WSF200               JUNCTION     0.19     0.32     5.55     0  02:30        0.32
  HS02004901           JUNCTION     0.12     0.27    10.09     0  02:12        0.27
  HS02004881           JUNCTION     0.01     0.03     9.06     0  02:15        0.03
  HS02004876           JUNCTION     0.04     0.11     9.14     0  02:09        0.11
  HS02004870           JUNCTION     0.01     0.05     9.34     0  02:15        0.05
  HS02004862           JUNCTION     0.02     0.06     9.45     0  02:15        0.06
  HS02004856           JUNCTION     0.08     0.12     9.54     0  02:15        0.12
  HS02004852           JUNCTION     0.01     0.04     9.55     0  02:16        0.04
  HS02004848           JUNCTION     0.01     0.04     9.64     0  02:15        0.04
  HS02004842           JUNCTION     0.33     0.37     9.64     0  02:14        0.37
  HS02004837           JUNCTION     0.03     0.06     9.64     0  02:14        0.06
  HS02004830           JUNCTION     0.04     0.07     9.54     0  02:15        0.07
  HS02004824           JUNCTION     0.02     0.05     9.45     0  02:18        0.05
  HS02004817           JUNCTION     0.43     0.56     9.41     0  02:15        0.56
  HS02004807           JUNCTION     0.12     0.24     9.41     0  02:15        0.24
  HS02004802           JUNCTION     0.16     0.28     9.40     0  02:15        0.28
  HS02004799           JUNCTION     0.11     0.31     9.52     0  02:13        0.31
  HS02004792           JUNCTION     0.03     0.13     9.65     0  02:12        0.13
  HS02004788           JUNCTION     0.02     0.09     9.99     0  02:13        0.09
  HS02004785           JUNCTION     0.04     0.16    10.06     0  02:12        0.16
  HS02004777           JUNCTION     0.14     0.29    10.09     0  02:12        0.29
  HS02004770           JUNCTION     0.11     0.26    10.09     0  02:12        0.26
  HS02004480           JUNCTION     0.07     0.25     9.49     0  02:13        0.25
  HS02004479           JUNCTION     0.11     0.28     9.49     0  02:13        0.28
  HS02004478           JUNCTION     0.06     0.16     9.39     0  02:14        0.16
  YS02001745           JUNCTION     0.56     0.84     8.36     0  05:30        0.84
  YS02001748           JUNCTION     0.94     1.28     8.36     0  05:18        1.28
  YS02001751           JUNCTION     1.12     2.02     8.89     0  03:14        1.48
  YS02001754           JUNCTION     1.38     2.06     8.67     0  03:14        1.75
  YS02001762           JUNCTION     1.57     1.98     8.38     0  06:08        1.96
  YS02001765           JUNCTION     1.53     1.93     8.38     0  06:08        1.91
  YS02001767           JUNCTION     1.49     1.89     8.38     0  06:08        1.88
  YS02001770           JUNCTION     1.48     1.88     8.38     0  06:17        1.87
  YS02001774           JUNCTION     1.55     1.97     8.39     0  03:13        1.94
  YS02001779           JUNCTION     1.30     1.68     8.37     0  03:01        1.68
  YS02001882           JUNCTION     0.33     0.58     7.30     0  02:46        0.58
  YS02001884           JUNCTION     0.43     0.68     7.29     0  02:45        0.68
  YS02001759           JUNCTION     1.61     2.01     8.38     0  06:08        2.00
  YS02001887           JUNCTION     0.51     0.76     7.29     0  02:45        0.75
  YS02001890           JUNCTION     0.53     0.79     7.29     0  02:45        0.78
  YS02001898           JUNCTION     0.31     0.54     7.28     0  02:44        0.54
  YS02001901           JUNCTION     0.42     0.67     7.28     0  02:44        0.66
  YS02001904           JUNCTION     0.40     0.64     7.27     0  02:44        0.64
  YS02001907           JUNCTION     0.73     0.99     7.28     0  02:48        0.98
  YS02001910           JUNCTION     0.52     0.77     7.28     0  02:45        0.77
  YS02001915           JUNCTION     0.32     0.55     7.27     0  02:45        0.55
  YS02001918           JUNCTION     0.10     0.20     7.27     0  02:43        0.20
  YS02001619           JUNCTION     1.09     1.50     8.43     0  03:57        1.46
  YS02001629           JUNCTION     1.44     1.85     8.40     0  03:55        1.83
  YS02001641           JUNCTION     1.54     1.93     8.37     0  05:11        1.92
  YS02001644           JUNCTION     1.55     1.92     8.35     0  04:39        1.92
  YS02001652           JUNCTION     1.39     2.12     8.72     0  03:00        1.78
  YS02001655           JUNCTION     1.15     2.20     9.05     0  03:01        1.53
  YS02001920           JUNCTION     0.20     0.28     7.29     0  02:50        0.28
  YS02001923           JUNCTION     0.08     0.10     7.36     0  03:01        0.10
  YS02001926           JUNCTION     0.16     0.21     7.65     0  03:01        0.21
  YS02001929           JUNCTION     0.08     0.11     7.80     0  03:01        0.11
  YS02001658           JUNCTION     0.89     1.62     8.76     0  03:41        1.26
  YS02001661           JUNCTION     0.66     1.01     8.42     0  05:05        1.01
  YS02001664           JUNCTION     0.27     0.50     8.43     0  05:02        0.50
  YS02001622           JUNCTION     1.11     1.52     8.42     0  03:57        1.49
  YS02001633           JUNCTION     1.53     1.93     8.39     0  04:39        1.92
  YS02001649           JUNCTION     1.58     1.98     8.37     0  06:08        1.97
  YS02001757           JUNCTION     1.70     2.11     8.37     0  05:18        2.10
  YS02001895           JUNCTION     0.30     0.54     7.28     0  02:45        0.53
  YS02001625           JUNCTION     1.39     1.78     8.38     0  02:36        1.78
  YS02163301           JUNCTION     1.47     1.88     8.39     0  03:55        1.86
  YS02163601           JUNCTION     1.58     1.98     8.38     0  04:45        1.97
  YS02164001           JUNCTION     1.52     1.91     8.37     0  04:39        1.91
  YS02001647           JUNCTION     1.38     1.76     8.37     0  05:30        1.75
  YSB1154              JUNCTION     0.25     0.43     9.49     0  02:13        0.43
  YSB6556              JUNCTION     0.14     0.32     9.49     0  02:13        0.32
  YSB1174              JUNCTION     0.20     0.38     9.49     0  02:13        0.38
  YSB1171              JUNCTION     0.40     0.59     9.49     0  02:13        0.59
  YS02006553           JUNCTION     0.73     0.99     7.27     0  02:45        0.98
  YS02006561           JUNCTION     0.17     0.31     6.97     0  02:46        0.30
  YS02006556           JUNCTION     0.71     0.96     7.27     0  02:42        0.95
  YS02006558           JUNCTION     0.75     1.01     7.27     0  02:43        1.00
  YS02001783           JUNCTION     0.46     0.75     6.89     0  03:10        0.72
  YS02001784           JUNCTION     0.52     0.94     7.01     0  03:10        0.79
  YS02001786           JUNCTION     0.52     0.79     6.82     0  03:10        0.79
  YS02001788           JUNCTION     0.54     1.12     7.09     0  03:10        0.76
  YS02001790           JUNCTION     0.79     1.96     7.60     0  03:07        1.05
  YS02001791           JUNCTION     0.89     1.67     7.14     0  03:07        1.18
  YS02001793           JUNCTION     1.35     2.68     7.51     0  03:06        1.78
  WS02004139           JUNCTION     0.64     0.74     5.65     0  02:36        0.74
  WSC                  OUTFALL      0.30     0.40     1.07     0  02:34        0.40
  3                    OUTFALL      0.03     0.21     6.21     0  02:26        0.21
  4                    OUTFALL      0.00     0.05     7.05     0  02:27        0.05
  5                    OUTFALL      0.00     0.00     5.00     0  00:00        0.00
  JK-storage           STORAGE      4.44     5.80     6.60     0  03:08        5.80
  CC-storage           STORAGE      0.94     1.35     8.35     0  05:31        1.35
  XR-storage           STORAGE      6.04     7.29     5.29     0  04:53        7.29
  
  
  *******************
  Node Inflow Summary
  *******************
  
  -------------------------------------------------------------------------------------------------
                                  Maximum  Maximum                  Lateral       Total        Flow
                                  Lateral    Total  Time of Max      Inflow      Inflow     Balance
                                   Inflow   Inflow   Occurrence      Volume      Volume       Error
  Node                 Type           LPS      LPS  days hr:min    10^6 ltr    10^6 ltr     Percent
  -------------------------------------------------------------------------------------------------
  WS02001211           JUNCTION      7.35   388.14     0  02:43       0.207         7.9       0.465
  WS02001212           JUNCTION      0.00   388.70     0  02:43           0        7.86       0.259
  WS02001213           JUNCTION      0.00   389.23     0  02:42           0        7.84       0.279
  WS02003069           JUNCTION      0.32   982.87     0  02:33     0.00902        13.9       0.198
  WS02003072           JUNCTION      0.00   982.76     0  02:34           0        13.9       0.247
  WS02003073           JUNCTION      1.82   984.57     0  02:34      0.0514        13.9       0.274
  WS02003060           JUNCTION     16.53   982.73     0  02:33       0.466        13.9       0.188
  WS02003066           JUNCTION      0.00   584.31     0  02:30           0        5.68       0.066
  WS02003059           JUNCTION      0.00   389.99     0  02:42           0        7.82       0.483
  WS02003067           JUNCTION      0.00   584.24     0  02:30           0        5.68       0.144
  WS02004401           JUNCTION      0.00   587.64     0  02:26           0        5.89       0.322
  WS02004402           JUNCTION      0.00   587.10     0  02:26           0        5.87       0.307
  WS02004403           JUNCTION      0.00   586.96     0  02:26           0        5.85       0.283
  WS02004404           JUNCTION      0.16   586.92     0  02:27     0.00457        5.84       0.217
  WS02004406           JUNCTION      0.00   586.96     0  02:28           0        5.81       0.532
  WS02004409           JUNCTION      0.00   586.83     0  02:27           0        5.77       0.228
  WS02004410           JUNCTION      0.00   585.57     0  02:29           0        5.76       0.263
  WS02004411           JUNCTION      0.00   584.89     0  02:29           0        5.74       0.275
  WS02004412           JUNCTION      0.00   584.50     0  02:29           0        5.73       0.305
  WS02004413           JUNCTION      0.00   584.31     0  02:30           0        5.71       0.463
  WS02004405           JUNCTION      0.04   586.96     0  02:27     0.00107        5.83       0.325
  WS02006109           JUNCTION      1.23   582.52     0  02:24      0.0347        5.96       0.345
  WS02006110           JUNCTION      0.00   582.52     0  02:24           0        5.94       0.298
  WS02006111           JUNCTION      0.00   609.64     0  02:24           0        5.92       0.063
  WS02006112           JUNCTION     13.93   596.92     0  02:24      0.0356        5.95       0.459
  WS02006113           JUNCTION      0.00   582.95     0  02:24           0        5.92       0.132
  WS02006115           JUNCTION      0.00   598.99     0  02:29           0        5.92       0.284
  WS02006116           JUNCTION      0.00   588.81     0  02:26           0         5.9       0.275
  WS02006230           JUNCTION     10.28   349.19     0  02:49        0.29        4.81       0.272
  WS02006231           JUNCTION      0.00   338.00     0  02:50           0        4.53       0.161
  WS02006232           JUNCTION      0.00   337.95     0  02:50           0        4.54       0.319
  WS02006234           JUNCTION      0.00   337.49     0  02:50           0        4.55       0.128
  WS02006235           JUNCTION      0.00   337.33     0  02:50           0        4.59       0.211
  WS02006238           JUNCTION      0.00   275.74     0  03:00           0        4.21       0.153
  WS02006240           JUNCTION      0.00   256.34     0  03:01           0        4.19       0.238
  WS02006242           JUNCTION      0.00   247.95     0  03:01           0        4.19       0.310
  WS02006243           JUNCTION      0.00   241.61     0  02:18           0        4.19       0.165
  WS02006245           JUNCTION      0.00   248.24     0  02:18           0         4.2       0.190
  WS02006247           JUNCTION      0.00   252.89     0  02:19           0         4.2       0.156
  WS02006248           JUNCTION      0.00   255.73     0  02:19           0        4.21       0.109
  WS02006249           JUNCTION      0.00   257.95     0  02:19           0        4.23       0.221
  WS02006239           JUNCTION      0.00   266.01     0  03:00           0         4.2       0.228
  WS02006251           JUNCTION      0.08   260.06     0  02:18     0.00217        4.24       0.206
  WS02006252           JUNCTION      0.00   200.00     0  02:50           0        4.04       0.011
  WS02006253           JUNCTION      2.10    63.61     0  02:15      0.0046       0.203       1.736
  WS02006256           JUNCTION      0.00   600.00     0  02:16           0        1.79       0.154
  WS02004138           JUNCTION      0.00   380.00     0  02:00           0        7.72       0.060
  WS02004407           JUNCTION      0.00   586.91     0  02:27           0        5.78       0.105
  WS02006228           JUNCTION      0.00   581.29     0  02:24           0        5.94       0.227
  WS02006229           JUNCTION      0.00   581.33     0  02:23           0        5.95       0.209
  WS02006280           JUNCTION      0.00   314.55     0  02:15           0        1.15       0.006
  WS02006284           JUNCTION      0.10   314.52     0  02:14      0.0027        1.16       0.098
  WS02006287           JUNCTION      0.00   314.35     0  02:14           0        1.15       0.063
  WSF200               JUNCTION      0.00   584.34     0  02:30           0        5.67       0.060
  HS02004901           JUNCTION     17.23    17.23     0  02:08      0.0428       0.043       4.265
  HS02004881           JUNCTION      7.00    62.03     0  02:14      0.0187       0.199       0.209
  HS02004876           JUNCTION     11.21    54.98     0  02:14      0.0359       0.181       0.295
  HS02004870           JUNCTION     12.37    44.00     0  02:14      0.0354       0.145       0.073
  HS02004862           JUNCTION     10.13    32.43     0  02:15      0.0411        0.11       0.155
  HS02004856           JUNCTION      9.17    22.37     0  02:14      0.0266      0.0703       2.086
  HS02004852           JUNCTION      0.00    13.77     0  02:15           0      0.0438       0.119
  HS02004848           JUNCTION     20.49    20.49     0  02:17      0.0848      0.0848       0.051
  HS02004842           JUNCTION      0.00     7.49     0  02:26           0       0.054      31.684
  HS02004837           JUNCTION     26.22    32.33     0  02:14       0.241       0.282       0.288
  HS02004830           JUNCTION      0.15    32.45     0  02:14     0.00423       0.272       0.456
  HS02004824           JUNCTION     23.08    55.25     0  02:17       0.111       0.382       0.141
  HS02004817           JUNCTION      0.60    55.85     0  02:18      0.0169       0.398       4.369
  HS02004807           JUNCTION     23.25    77.11     0  02:16      0.0651       0.447       0.955
  HS02004802           JUNCTION      0.00    77.68     0  02:17           0       0.442       0.926
  HS02004799           JUNCTION     17.92   202.45     0  02:12      0.0527        0.62       0.370
  HS02004792           JUNCTION     79.76   184.83     0  02:12       0.227       0.567       0.071
  HS02004788           JUNCTION     26.01   107.43     0  02:12        0.12       0.341       0.115
  HS02004785           JUNCTION      0.15    81.79     0  02:12     0.00423       0.223       0.218
  HS02004777           JUNCTION      0.03    82.20     0  02:11    0.000846       0.223       2.373
  HS02004770           JUNCTION     67.68    83.49     0  02:10       0.183       0.224       1.398
  HS02004480           JUNCTION      0.00   238.89     0  02:13           0       0.727       0.106
  HS02004479           JUNCTION      0.00    37.18     0  02:14           0        0.12       0.614
  HS02004478           JUNCTION      0.00   314.33     0  02:14           0        1.15       0.052
  YS02001745           JUNCTION    118.33   235.82     0  03:53        1.21        1.24       0.829
  YS02001748           JUNCTION      0.04   376.53     0  03:12     0.00127        1.26       1.767
  YS02001751           JUNCTION      0.01   419.87     0  03:14     0.00031        1.21       1.816
  YS02001754           JUNCTION      0.26   222.51     0  03:00     0.00733        1.16       2.025
  YS02001762           JUNCTION      0.00   178.13     0  02:56           0        1.32       1.628
  YS02001765           JUNCTION      0.00   177.54     0  02:56           0        1.32       1.876
  YS02001767           JUNCTION      0.54   176.75     0  02:56      0.0151        1.34       2.734
  YS02001770           JUNCTION    151.59   187.84     0  02:37        1.39        1.41       2.264
  YS02001774           JUNCTION      0.00    56.86     0  02:11           0      0.0758      50.010
  YS02001779           JUNCTION      0.01    46.65     0  02:56    0.000141      0.0321      87.308
  YS02001882           JUNCTION      0.00     5.78     0  02:06           0     0.00859      27.388
  YS02001884           JUNCTION      0.00    16.61     0  02:09           0      0.0313      20.100
  YS02001759           JUNCTION    148.12   324.56     0  02:56        1.29        2.57       0.898
  YS02001887           JUNCTION    194.45   198.35     0  02:46        1.52        1.54       0.494
  YS02001890           JUNCTION      0.00   198.16     0  02:40           0         1.5       0.551
  YS02001898           JUNCTION      0.00   202.62     0  02:47           0        1.49       0.170
  YS02001901           JUNCTION      0.00   202.54     0  02:46           0        1.49       0.398
  YS02001904           JUNCTION      0.00   206.08     0  02:52           0        1.49       0.369
  YS02001907           JUNCTION      0.00   373.50     0  02:40           0        3.22       0.708
  YS02001910           JUNCTION      0.00   170.31     0  02:56           0        1.74       0.613
  YS02001915           JUNCTION    105.81   163.17     0  02:56        1.02        1.75       0.287
  YS02001918           JUNCTION      0.00    55.71     0  03:03           0       0.727       0.188
  YS02001619           JUNCTION    102.94   102.94     0  02:50        1.01        1.01       1.169
  YS02001629           JUNCTION      0.00   216.24     0  03:06           0       0.943       3.076
  YS02001641           JUNCTION      0.00   287.02     0  02:31           0        2.03       1.042
  YS02001644           JUNCTION    112.46   386.13     0  02:31        1.16        3.16       0.831
  YS02001652           JUNCTION      0.00   216.45     0  02:59           0        1.06       2.144
  YS02001655           JUNCTION      0.15   437.24     0  03:01     0.00434        1.09       2.062
  YS02001920           JUNCTION      2.87    54.05     0  03:01      0.0809       0.729       0.320
  YS02001923           JUNCTION      0.04    51.18     0  03:01     0.00106       0.649       0.057
  YS02001926           JUNCTION      0.05    51.21     0  03:01     0.00147        0.65       0.397
  YS02001929           JUNCTION     51.17    51.17     0  03:01       0.649       0.649       0.056
  YS02001658           JUNCTION      0.00   424.99     0  03:39           0        1.21       1.597
  YS02001661           JUNCTION      0.00   361.70     0  03:39           0        1.65       0.934
  YS02001664           JUNCTION    138.08   286.67     0  04:40        1.12        1.55       0.317
  YS02001622           JUNCTION      0.00   167.98     0  02:37           0           1       3.225
  YS02001633           JUNCTION    114.31   297.39     0  02:31        1.19        2.09       1.550
  YS02001649           JUNCTION      0.00   584.01     0  02:31           0        4.04       0.924
  YS02001757           JUNCTION      0.00   973.93     0  02:30           0        7.65       1.220
  YS02001895           JUNCTION      0.00   197.33     0  02:40           0         1.5       0.274
  YS02001625           JUNCTION      0.00   216.74     0  03:06           0       0.977       4.131
  YS02163301           JUNCTION      0.00   186.04     0  02:31           0       0.928       2.619
  YS02163601           JUNCTION      0.11   298.25     0  02:31      0.0031        2.05       1.489
  YS02164001           JUNCTION      0.00   296.16     0  02:31           0        2.03       0.984
  YS02001647           JUNCTION      0.00   378.84     0  02:31           0        3.03       0.918
  YSB1154              JUNCTION     19.93    19.93     0  02:12      0.0639      0.0652       2.264
  YSB6556              JUNCTION      0.00    19.93     0  02:14           0      0.0661       1.924
  YSB1174              JUNCTION     19.54    19.54     0  02:07      0.0464      0.0474       2.783
  YSB1171              JUNCTION      0.00    37.14     0  02:13           0       0.119       5.611
  YS02006553           JUNCTION      0.00   369.14     0  02:46           0        3.21       0.458
  YS02006561           JUNCTION      0.00   562.82     0  02:45           0        4.55       0.000
  YS02006556           JUNCTION      0.00   368.27     0  02:47           0        3.22       0.331
  YS02006558           JUNCTION    164.51   552.63     0  02:45        1.39        4.58       0.116
  YS02001783           JUNCTION      0.00   532.65     0  02:46           0        4.55       0.159
  YS02001784           JUNCTION      1.06   529.51     0  02:46      0.0299        4.57       0.232
  YS02001786           JUNCTION      0.06   524.42     0  02:46     0.00159        4.56       0.297
  YS02001788           JUNCTION      0.07   522.74     0  02:46       0.002        4.55       0.303
  YS02001790           JUNCTION      0.15   523.16     0  02:47     0.00437        4.54       0.375
  YS02001791           JUNCTION      0.00   521.77     0  02:47           0        4.52       0.325
  YS02001793           JUNCTION      0.00   577.18     0  03:05           0        4.51       0.355
  WS02004139           JUNCTION      0.32   380.32     0  02:01     0.00905        7.73       0.486
  WSC                  OUTFALL       0.00   984.60     0  02:34           0        13.9       0.000
  3                    OUTFALL       0.00   518.19     0  02:26           0        1.37       0.000
  4                    OUTFALL       0.00    23.56     0  02:27           0      0.0159       0.000
  5                    OUTFALL       0.00     0.00     0  00:00           0           0       0.000 ltr
  JK-storage           STORAGE       0.00   763.17     0  03:05           0        4.64      -7.453
  CC-storage           STORAGE       0.00   973.77     0  02:30           0        7.56       0.824
  XR-storage           STORAGE     391.57   391.57     0  02:47        7.67        8.27      -0.000
  
  
  **********************
  Node Surcharge Summary
  **********************
  
  Surcharging occurs when water rises above the top of the highest conduit.
  ---------------------------------------------------------------------
                                               Max. Height   Min. Depth
                                   Hours       Above Crown    Below Rim
  Node                 Type      Surcharged         Meters       Meters
  ---------------------------------------------------------------------
  WS02006109           JUNCTION        0.85          0.197        1.623
  WS02006110           JUNCTION        0.39          0.043        1.807
  WS02006112           JUNCTION        0.60          0.149        1.531
  WS02006231           JUNCTION        0.16          0.025        1.505
  WS02006232           JUNCTION        0.69          0.157        1.323
  WS02006234           JUNCTION        0.40          0.065        1.175
  WS02006235           JUNCTION        0.56          0.100        1.190
  WS02006238           JUNCTION        0.60          0.115        1.315
  WS02006240           JUNCTION        0.18          0.023        1.367
  WS02006242           JUNCTION        0.36          0.054        0.766
  WS02006239           JUNCTION        0.37          0.054        1.236
  WS02006228           JUNCTION        0.84          0.238        1.962
  YS02001748           JUNCTION        3.67          0.201        0.989
  YS02001751           JUNCTION        4.38          1.016        0.184
  YS02001754           JUNCTION        5.04          1.010        0.140
  YS02001762           JUNCTION        5.46          0.978        0.172
  YS02001765           JUNCTION        5.42          0.929        0.171
  YS02001767           JUNCTION        5.38          0.889        0.141
  YS02001770           JUNCTION        5.30          0.853        0.067
  YS02001774           JUNCTION        5.45          0.971        0.079
  YS02001779           JUNCTION        4.91          0.680        0.000
  YS02001759           JUNCTION        5.47          1.011        0.199
  YS02001619           JUNCTION        4.26          0.502        0.108
  YS02001629           JUNCTION        4.31          0.470        0.000
  YS02001641           JUNCTION        5.43          0.934        0.166
  YS02001644           JUNCTION        5.44          0.920        0.000
  YS02001652           JUNCTION        5.19          1.090        0.040
  YS02001655           JUNCTION        4.44          1.200        0.000
  YS02001658           JUNCTION        3.63          0.616        0.684
  YS02001622           JUNCTION        4.36          0.516        0.104
  YS02001633           JUNCTION        5.42          0.912        0.148
  YS02001649           JUNCTION        5.46          0.984        0.066
  YS02001757           JUNCTION        5.52          1.113        0.097
  YS02001625           JUNCTION        5.23          0.780        0.000
  YS02163301           JUNCTION        5.35          0.876        0.154
  YS02163601           JUNCTION        5.46          0.981        0.099
  YS02164001           JUNCTION        5.43          0.913        0.187
  YS02001647           JUNCTION        5.21          0.756        0.144
  YS02001784           JUNCTION        0.01          0.145        1.345
  YS02001788           JUNCTION        0.01          0.317        1.163
  YS02001790           JUNCTION        4.70          1.157        0.000
  YS02001791           JUNCTION        4.71          0.866        1.054
  YS02001793           JUNCTION        4.73          1.676        0.924
  
  
  *********************
  Node Flooding Summary
  *********************
  
  Flooding refers to all water that overflows a node, whether it ponds or not.
  --------------------------------------------------------------------------
                                                             Total   Maximum
                                 Maximum   Time of Max       Flood    Ponded
                        Hours       Rate    Occurrence      Volume     Depth
  Node                 Flooded       LPS   days hr:min    10^6 ltr    Meters
  --------------------------------------------------------------------------
  YS02001779              0.09     28.74      0  03:01       0.000     0.000
  YS02001629              0.01      5.08      0  03:55       0.000     0.000
  YS02001644              1.31     63.84      0  05:35       0.089     0.000
  YS02001655              0.01    144.86      0  03:01       0.000     0.000
  YS02001625              0.06     59.35      0  02:36       0.000     0.000
  YS02001790              0.01    219.21      0  03:07       0.000     0.000
  JK-storage              4.69    506.48      0  03:11       2.936     0.000
  
  
  **********************
  Storage Volume Summary
  **********************
  
  --------------------------------------------------------------------------------------------------
                         Average     Avg  Evap Exfil       Maximum     Max    Time of Max    Maximum
                          Volume    Pcnt  Pcnt  Pcnt        Volume    Pcnt     Occurrence    Outflow
  Storage Unit           1000 m3    Full  Loss  Loss       1000 m3    Full    days hr:min        LPS
  --------------------------------------------------------------------------------------------------
  JK-storage               0.223      77     0     0         0.291     100       0  03:08     600.00
  CC-storage               2.624      17     0     0         3.756      24       0  05:31     200.00
  XR-storage               0.724      78     0     0         0.875      94       0  04:53     380.00
  
  
  ***********************
  Outfall Loading Summary
  ***********************
  
  -----------------------------------------------------------
                         Flow       Avg       Max       Total
                         Freq      Flow      Flow      Volume
  Outfall Node           Pcnt       LPS       LPS    10^6 ltr
  -----------------------------------------------------------
  WSC                   99.99    574.81    984.60      13.851
  3                     18.45    399.28    518.19       1.369
  4                      8.60     10.36     23.56       0.016
  5                      0.00      0.00      0.00       0.000
  -----------------------------------------------------------
  System                31.76    984.45   1509.80      15.236
  
  
  ********************
  Link Flow Summary
  ********************
  
  -----------------------------------------------------------------------------
                                 Maximum  Time of Max   Maximum    Max/    Max/
                                  |Flow|   Occurrence   |Veloc|    Full    Full
  Link                 Type          LPS  days hr:min     m/sec    Flow   Depth
  -----------------------------------------------------------------------------
  WS02003066WSF200     CONDUIT    584.34     0  02:30      2.80    0.10    0.24
  WS02006287WS02006284 CONDUIT    314.43     0  02:14      1.87    0.15    0.27
  WS02006284WS02006280 CONDUIT    314.55     0  02:15      2.11    0.13    0.25
  WS02006280WS02006229 CONDUIT    314.56     0  02:15      3.39    0.07    0.18
  WS02006229WS02006228 CONDUIT    581.29     0  02:24      1.16    1.93    1.00
  WS02006256WS02006235 CONDUIT    166.25     0  00:01      2.58    1.76    1.00
  WS02006253WS02006251 CONDUIT     62.65     0  02:11      0.57    0.19    0.75
  WS02006252WS02006251 CONDUIT    200.99     0  02:14      1.97    0.74    0.76
  WS02006251WS02006249 CONDUIT    257.95     0  02:19      1.02    0.74    0.76
  WS02006249WS02006248 CONDUIT    255.73     0  02:19      1.10    1.40    0.76
  WS02006248WS02006247 CONDUIT    252.89     0  02:19      1.06    0.55    0.82
  WS02006247WS02006245 CONDUIT    248.24     0  02:18      1.01    1.97    0.87
  WS02006245WS02006243 CONDUIT    241.61     0  02:18      1.01    0.71    0.90
  WS02006243WS02006242 CONDUIT    247.95     0  03:01      0.85    0.53    0.97
  WS02006242WS02006240 CONDUIT    256.34     0  03:01      0.79    1.02    1.00
  WS02006240WS02006239 CONDUIT    266.01     0  03:00      0.86    0.84    1.00
  WS02006239WS02006238 CONDUIT    275.74     0  03:00      0.78    0.88    1.00
  WS02006238WS02006235 CONDUIT    279.65     0  03:00      1.25    0.62    1.00
  WS02006235WS02006234 CONDUIT    337.49     0  02:50      0.93    3.56    1.00
  WS02006234WS02006232 CONDUIT    337.95     0  02:50      1.13    0.68    1.00
  WS02006232WS02006231 CONDUIT    338.00     0  02:50      0.90    0.71    1.00
  WS02006231WS02006230 CONDUIT    338.91     0  02:49      1.14    5.14    0.99
  WS02006230WS02006229 CONDUIT    350.38     0  02:50      0.91    7.80    1.00
  WS02006228WS02006109 CONDUIT    581.29     0  02:24      1.16    2.54    1.00
  WS02006116WS02004401 CONDUIT    587.64     0  02:26      0.80    0.81    0.88
  WS02006115WS02006116 CONDUIT    588.81     0  02:26      0.90    0.76    0.81
  WS02006113WS02006111 CONDUIT    609.64     0  02:24      2.53    0.73    0.48
  WS02006112WS02006115 CONDUIT    598.99     0  02:29      0.81    0.35    0.89
  WS02006111WS02006112 CONDUIT    588.08     0  02:24      1.61    0.28    0.68
  WS02006110WS02006113 CONDUIT    582.95     0  02:24      1.36    0.53    0.80
  WS02006109WS02006110 CONDUIT    582.52     0  02:24      1.16    1.12    1.00
  WS02004411WS02004412 CONDUIT    584.50     0  02:29      0.96    0.83    0.72
  WS02004401WS02004402 CONDUIT    587.10     0  02:26      0.79    0.70    0.90
  WS02004413WS02003067 CONDUIT    584.24     0  02:30      1.16    0.25    0.61
  WS02004412WS02004413 CONDUIT    584.31     0  02:30      0.87    0.39    0.80
  WS02004410WS02004411 CONDUIT    584.89     0  02:29      0.97    0.80    0.72
  WS02004409WS02004410 CONDUIT    585.57     0  02:29      1.00    0.76    0.71
  WS02004407WS02004409 CONDUIT    586.83     0  02:27      1.51    0.21    0.50
  WS02004406WS02004407 CONDUIT    586.91     0  02:27      1.09    0.26    0.65
  WS02004405WS02004406 CONDUIT    586.96     0  02:28      0.75    1.16    0.98
  WS02004404WS02004405 CONDUIT    586.92     0  02:27      0.84    5.75    0.99
  WS02004403WS02004404 CONDUIT    586.76     0  02:27      0.76    0.42    0.96
  WS02004402WS02004403 CONDUIT    586.96     0  02:26      0.78    0.84    0.92
  WS02004139WS02001211 CONDUIT    380.80     0  02:43      0.69    0.48    0.60
  WS02004138WS02004139 CONDUIT    380.00     0  02:01      2.94    0.08    0.44
  WS02003067WS02003066 CONDUIT    584.31     0  02:30      1.26    0.19    0.43
  WS02001213WS02003059 CONDUIT    389.99     0  02:42      0.68    0.64    0.78
  WS02001212WS02001213 CONDUIT    389.23     0  02:42      1.32    0.60    0.48
  WS02001211WS02001212 CONDUIT    388.70     0  02:43      0.78    0.30    0.66
  WS02003072WS02003073 CONDUIT    982.75     0  02:34      1.75    2.12    0.50
  WS02003069WS02003072 CONDUIT    982.76     0  02:34      1.65    0.47    0.52
  WS02003060WS02003069 CONDUIT    982.55     0  02:33      1.89    0.38    0.47
  WS02003059WS02003060 CONDUIT    391.04     0  02:41      0.93    0.26    0.67
  HS02004901HS02004770 CONDUIT     16.17     0  02:11      0.06    0.06    0.38
  HS02004876HS02004881 CONDUIT     55.68     0  02:15      0.81    0.59    0.10
  HS02004870HS02004876 CONDUIT     43.97     0  02:15      0.55    0.03    0.11
  HS02004842HS02004848 CONDUIT      7.49     0  02:26      0.04    0.00    0.29
  HS02004837HS02004842 CONDUIT      7.78     0  02:27      0.41    0.00    0.30
  HS02004830HS02004837 CONDUIT     32.30     0  02:14      0.50    0.03    0.09
  HS02004824HS02004830 CONDUIT     32.45     0  02:15      0.54    0.04    0.09
  HS02004817HS02004824 CONDUIT     55.25     0  02:18      0.18    0.02    0.44
  HS02004770HS02004777 CONDUIT     82.17     0  02:11      0.30    0.15    0.39
  HS02004799HS02004480 CONDUIT    202.16     0  02:12      0.74    0.26    0.39
  HS02004792HS02004799 CONDUIT    184.71     0  02:12      0.84    0.11    0.31
  HS02004788HS02004792 CONDUIT    107.34     0  02:13      0.97    0.07    0.16
  HS02004785HS02004788 CONDUIT     81.69     0  02:13      0.63    0.62    0.18
  HS02004777HS02004785 CONDUIT     81.64     0  02:12      0.36    0.10    0.32
  HS02004480HS02004478 CONDUIT    238.80     0  02:13      1.15    1.01    0.30
  HS02004479HS02004480 CONDUIT     37.50     0  02:15      0.16    0.04    0.38
  HS02004862HS02004870 CONDUIT     32.39     0  02:15      0.56    0.03    0.08
  HS02004848HS02004852 CONDUIT     13.77     0  02:15      0.38    0.02    0.05
  HS02004856HS02004862 CONDUIT     22.33     0  02:15      0.42    0.02    0.08
  HS02004852HS02004856 CONDUIT     13.72     0  02:16      0.18    0.02    0.11
  HS02004802HS02004478 CONDUIT     78.37     0  02:17      0.37    0.07    0.31
  HS02004478WS02006287 CONDUIT    314.35     0  02:14      1.57    0.09    0.22
  HS02004817HS02004807 CONDUIT     56.81     0  02:19      0.14    0.03    0.57
  HS02004807HS02004802 CONDUIT     77.68     0  02:17      0.31    0.15    0.36
  YS02001759YS02001757 CONDUIT    326.96     0  02:56      0.42    0.23    1.00
  YS02001762YS02001759 CONDUIT    180.58     0  02:56      0.23    0.21    1.00
  YS02001765YS02001762 CONDUIT    178.13     0  02:56      0.23    0.17    1.00
  YS02001770YS02001767 CONDUIT    176.21     0  02:56      0.32    0.70    1.00
  YS02001774YS02001770 CONDUIT     56.86     0  02:11      0.14    0.04    1.00
  YS02001779YS02001774 CONDUIT     46.65     0  02:56      0.09    0.02    1.00
  YS02001649YS02001757 CONDUIT    586.03     0  02:31      0.75    0.36    1.00
  YS02001767YS02001765 CONDUIT    177.54     0  02:56      0.26    0.22    1.00
  YS02006561YS02001783 CONDUIT    532.65     0  02:46      2.03    0.28    0.63
  YS02001783YS02001784 CONDUIT    528.45     0  02:46      1.47    0.73    0.96
  YS02001784YS02001785 CONDUIT    524.36     0  02:46      1.57    1.22    0.99
  YS02001788YS02001790 CONDUIT    523.01     0  02:47      2.12    0.39    1.00
  YS02001790YS02001791 CONDUIT    521.77     0  02:47      2.48    0.57    1.00
  YS02001791YS02001793 CONDUIT    553.91     0  03:05      5.10    0.24    1.00
  YS02001910YS02001907 CONDUIT    176.38     0  02:54      0.49    0.10    0.87
  YS02001786YS02001788 CONDUIT    522.66     0  02:46      2.02    1.01    0.98
  YS02001915YS02001910 CONDUIT    170.31     0  02:56      0.45    0.08    0.66
  YS02001918YS02001915 CONDUIT     58.06     0  02:56      0.44    0.03    0.38
  YS02001923YS02001920 CONDUIT     51.18     0  03:01      0.54    0.02    0.19
  YS02001926YS02001923 CONDUIT     51.14     0  03:01      0.60    0.07    0.17
  YS02001929YS02001926 CONDUIT     51.16     0  03:01      0.64    0.02    0.16
  YS02001920YS02001918 CONDUIT     55.71     0  03:03      0.54    0.05    0.24
  YS02001629YS02163301 CONDUIT    186.04     0  02:31      0.24    0.23    1.00
  YS02001619YS02001622 CONDUIT    167.98     0  02:37      0.74    0.25    1.00
  YS02001622YS02001625 CONDUIT    216.74     0  03:06      0.31    0.12    1.00
  YS02001625YS02001629 CONDUIT    216.24     0  03:06      0.30    0.10    1.00
  YS02163301YS02001633 CONDUIT    192.14     0  02:31      0.24    0.18    1.00
  YS02163601YS02164001 CONDUIT    296.16     0  02:31      0.38    0.26    1.00
  YS02164001YS02001641 CONDUIT    287.02     0  02:31      0.37    0.39    1.00
  YS02001641YS02001644 CONDUIT    282.20     0  02:31      0.36    0.91    1.00
  YS02001647YS02001649 CONDUIT    453.06     0  02:31      0.59    0.24    1.00
  YS02006553YS02006556 CONDUIT    368.27     0  02:47      0.48    0.32    0.95
  YS02006556YS02006558 CONDUIT    389.19     0  02:45      0.50    0.31    0.98
  YSB6556YSB1171       CONDUIT     20.34     0  02:15      0.08    0.02    0.65
  YS02001907YS02006553 CONDUIT    369.14     0  02:46      0.41    0.43    1.00
  YS02006558YS02006561 CONDUIT    562.82     0  02:45      2.88    1.24    0.66
  YS02001633YS02163601 CONDUIT    298.14     0  02:31      0.38    0.31    1.00
  YS02001644YS02001647 CONDUIT    378.84     0  02:31      0.50    0.22    1.00
  YS02001745YS02001748 CONDUIT    312.91     0  03:53      1.56    0.12    0.92
  YS02001748YS02001751 CONDUIT    419.86     0  03:14      1.21    0.21    1.00
  YS02001751YS02001754 CONDUIT    222.25     0  03:00      1.05    0.11    1.00
  YS02001754YS02001757 CONDUIT    225.18     0  02:58      0.33    0.09    1.00
  YS02001882YS02001884 CONDUIT      7.45     0  02:46      0.06    0.01    0.60
  YS02001884YS02001887 CONDUIT     16.61     0  02:09      0.07    0.02    0.69
  YS02001890YS02001895 CONDUIT    197.33     0  02:40      0.36    0.09    0.66
  YS02001895YS02001898 CONDUIT    202.62     0  02:47      0.51    0.35    0.52
  YS02001898YS02001901 CONDUIT    202.54     0  02:46      0.41    0.13    0.60
  YS02001901YS02001904 CONDUIT    206.08     0  02:52      0.38    0.32    0.65
  YS02001904YS02001907 CONDUIT    209.02     0  02:40      0.31    0.07    0.81
  YS02001887YS02001890 CONDUIT    198.16     0  02:40      0.32    0.34    0.75
  YS02001652YS02001649 CONDUIT    235.31     0  02:30      0.36    0.12    1.00
  YS02001655YS02001652 CONDUIT    216.45     0  02:59      1.11    0.11    1.00
  YS02001658YS02001655 CONDUIT    437.09     0  03:01      1.40    0.19    1.00
  YS02001661YS02001658 CONDUIT    424.99     0  03:39      1.63    0.17    0.97
  YS02001664YS02001661 CONDUIT    323.05     0  04:37      1.38    0.10    0.69
  YSB1154YSB6556       CONDUIT     19.93     0  02:14      0.19    0.04    0.54
  YSB1174YSB1171       CONDUIT     18.17     0  02:08      0.07    0.03    0.66
  YSB1171HS02004479    CONDUIT     37.18     0  02:14      0.54    0.02    0.51
  HS02004881HS02006253 CONDUIT     62.02     0  02:15      1.99    0.01    0.16
  YS02001793JiankangQianchi CONDUIT    763.17     0  03:05     15.40    0.06    1.00
  YS02001757CaochengTiaoxuchi CONDUIT    973.77     0  02:30      2.19    0.43    1.00
  WSF200WS02003060     CONDUIT    584.53     0  02:31      1.64    0.13    0.35
  1                    CONDUIT    984.60     0  02:34      3.31    0.34    0.40
  2                    CONDUIT     23.56     0  02:27      3.19    0.06    0.16
  3                    CONDUIT    518.19     0  02:26      9.84    0.83    0.70
  4                    CONDUIT      0.00     0  00:00      0.00    0.00    0.00
  CC-Pump-1            PUMP       200.00     0  03:00              1.00
  CC-Pump-2            PUMP       200.00     0  02:14              1.00
  JK-Pump-1            PUMP       300.00     0  00:00              1.00
  JK-Pump-2            PUMP       300.00     0  02:16              1.00
  XR-Pump-1            PUMP        95.00     0  00:00              1.00
  XR-Pump-2            PUMP        95.00     0  02:00              1.00
  XR-Pump-3            PUMP        95.00     0  00:00              1.00
  XR-Pump-4            PUMP        95.00     0  02:00              1.00
  
  
  ***************************
  Flow Classification Summary
  ***************************
  
  -------------------------------------------------------------------------------------
                      Adjusted    ---------- Fraction of Time in Flow Class ---------- 
                       /Actual         Up    Down  Sub   Sup   Up    Down  Norm  Inlet 
  Conduit               Length    Dry  Dry   Dry   Crit  Crit  Crit  Crit  Ltd   Ctrl  
  -------------------------------------------------------------------------------------
  WS02003066WSF200        1.00   0.06  0.00  0.00  0.00  0.94  0.00  0.00  0.68  0.00
  WS02006287WS02006284    1.00   0.04  0.01  0.00  0.66  0.29  0.00  0.00  0.76  0.00
  WS02006284WS02006280    1.00   0.04  0.00  0.00  0.00  0.00  0.00  0.96  0.00  0.00
  WS02006280WS02006229    1.00   0.04  0.00  0.00  0.00  0.00  0.00  0.96  0.00  0.00
  WS02006229WS02006228    1.00   0.00  0.00  0.00  0.99  0.00  0.00  0.01  0.00  0.00
  WS02006256WS02006235    1.00   0.00  0.00  0.00  1.00  0.00  0.00  0.00  0.00  0.00
  WS02006253WS02006251    1.00   0.03  0.01  0.00  0.96  0.00  0.00  0.00  0.00  0.00
  WS02006252WS02006251    1.00   0.08  0.00  0.00  0.00  0.00  0.92  0.00  0.00  0.00
  WS02006251WS02006249    1.00   0.00  0.00  0.00  1.00  0.00  0.00  0.00  0.25  0.00
  WS02006249WS02006248    1.00   0.00  0.02  0.00  0.93  0.00  0.05  0.00  0.00  0.00
  WS02006248WS02006247    1.00   0.02  0.00  0.00  0.98  0.00  0.00  0.00  0.14  0.00
  WS02006247WS02006245    1.00   0.02  0.00  0.00  0.98  0.00  0.00  0.00  0.00  0.00
  WS02006245WS02006243    1.00   0.01  0.00  0.00  0.94  0.00  0.00  0.04  0.01  0.00
  WS02006243WS02006242    1.00   0.01  0.00  0.00  0.99  0.00  0.00  0.00  0.25  0.00
  WS02006242WS02006240    1.00   0.00  0.00  0.00  1.00  0.00  0.00  0.00  0.00  0.00
  WS02006240WS02006239    1.00   0.00  0.00  0.00  0.96  0.00  0.00  0.04  0.01  0.00
  WS02006239WS02006238    1.00   0.00  0.00  0.00  1.00  0.00  0.00  0.00  0.00  0.00
  WS02006238WS02006235    1.00   0.00  0.00  0.00  1.00  0.00  0.00  0.00  0.00  0.00
  WS02006235WS02006234    1.00   0.00  0.00  0.00  0.96  0.00  0.04  0.00  0.00  0.00
  WS02006234WS02006232    1.00   0.00  0.00  0.00  1.00  0.00  0.00  0.00  0.15  0.00
  WS02006232WS02006231    1.00   0.00  0.00  0.00  0.99  0.00  0.00  0.00  0.00  0.00
  WS02006231WS02006230    1.00   0.00  0.00  0.00  0.21  0.00  0.79  0.00  0.00  0.00
  WS02006230WS02006229    1.00   0.00  0.00  0.00  0.99  0.00  0.00  0.01  0.01  0.00
  WS02006228WS02006109    1.00   0.00  0.00  0.00  1.00  0.00  0.00  0.00  0.00  0.00
  WS02006116WS02004401    1.00   0.03  0.00  0.00  0.97  0.00  0.00  0.00  0.00  0.00
  WS02006115WS02006116    1.00   0.03  0.00  0.00  0.97  0.00  0.00  0.01  0.00  0.00
  WS02006113WS02006111    1.00   0.02  0.00  0.00  0.00  0.98  0.00  0.00  0.13  0.00
  WS02006112WS02006115    1.00   0.02  0.00  0.00  0.97  0.00  0.00  0.00  0.00  0.00
  WS02006111WS02006112    1.00   0.02  0.00  0.00  0.98  0.00  0.00  0.00  0.98  0.00
  WS02006110WS02006113    1.00   0.01  0.01  0.00  0.98  0.00  0.00  0.00  0.00  0.00
  WS02006109WS02006110    1.00   0.00  0.01  0.00  0.98  0.00  0.01  0.00  0.00  0.00
  WS02004411WS02004412    1.00   0.04  0.00  0.00  0.96  0.00  0.00  0.00  0.00  0.00
  WS02004401WS02004402    1.00   0.03  0.00  0.00  0.97  0.00  0.00  0.00  0.00  0.00
  WS02004413WS02003067    1.00   0.04  0.01  0.00  0.00  0.00  0.95  0.00  0.00  0.00
  WS02004412WS02004413    1.00   0.04  0.00  0.00  0.96  0.00  0.00  0.00  0.03  0.00
  WS02004410WS02004411    1.00   0.04  0.00  0.00  0.96  0.00  0.00  0.00  0.04  0.00
  WS02004409WS02004410    1.00   0.04  0.00  0.00  0.96  0.00  0.00  0.00  0.04  0.00
  WS02004407WS02004409    1.00   0.04  0.00  0.00  0.96  0.00  0.00  0.00  0.89  0.00
  WS02004406WS02004407    1.00   0.00  0.04  0.00  0.96  0.00  0.00  0.00  0.00  0.00
  WS02004405WS02004406    1.00   0.00  0.00  0.00  1.00  0.00  0.00  0.00  0.01  0.00
  WS02004404WS02004405    1.00   0.00  0.00  0.00  1.00  0.00  0.00  0.00  0.00  0.00
  WS02004403WS02004404    1.00   0.00  0.03  0.00  0.97  0.00  0.00  0.00  0.01  0.00
  WS02004402WS02004403    1.00   0.03  0.00  0.00  0.97  0.00  0.00  0.00  0.00  0.00
  WS02004139WS02001211    1.00   0.00  0.00  0.00  1.00  0.00  0.00  0.00  0.00  0.00
  WS02004138WS02004139    1.00   0.00  0.00  0.00  0.99  0.01  0.00  0.00  1.00  0.00
  WS02003067WS02003066    1.00   0.05  0.00  0.00  0.94  0.00  0.00  0.00  0.00  0.00
  WS02001213WS02003059    1.00   0.00  0.00  0.00  0.99  0.00  0.00  0.00  0.00  0.00
  WS02001212WS02001213    1.00   0.00  0.00  0.00  0.93  0.00  0.07  0.00  0.00  0.00
  WS02001211WS02001212    1.00   0.00  0.00  0.00  1.00  0.00  0.00  0.00  0.00  0.00
  WS02003072WS02003073    1.00   0.00  0.00  0.00  0.00  0.00  0.00  1.00  0.00  0.00
  WS02003069WS02003072    1.00   0.00  0.00  0.00  0.99  0.01  0.00  0.00  0.23  0.00
  WS02003060WS02003069    1.00   0.00  0.00  0.00  0.99  0.01  0.00  0.00  0.20  0.00
  WS02003059WS02003060    1.00   0.00  0.00  0.00  1.00  0.00  0.00  0.00  0.01  0.00
  HS02004901HS02004770    1.00   0.04  0.00  0.00  0.96  0.00  0.00  0.00  0.02  0.00
  HS02004876HS02004881    1.00   0.02  0.00  0.00  0.98  0.00  0.00  0.00  0.00  0.00
  HS02004870HS02004876    1.00   0.01  0.00  0.00  0.99  0.00  0.00  0.00  0.95  0.00
  HS02004842HS02004848    1.00   0.00  0.04  0.00  0.96  0.00  0.00  0.00  0.67  0.00
  HS02004837HS02004842    1.00   0.00  0.00  0.00  0.99  0.01  0.00  0.00  0.11  0.00
  HS02004830HS02004837    1.00   0.00  0.00  0.00  1.00  0.00  0.00  0.00  0.99  0.00
  HS02004824HS02004830    1.00   0.00  0.00  0.00  1.00  0.00  0.00  0.00  0.00  0.00
  HS02004817HS02004824    1.00   0.00  0.00  0.00  1.00  0.00  0.00  0.00  1.00  0.00
  HS02004770HS02004777    1.00   0.00  0.04  0.00  0.96  0.00  0.00  0.00  0.07  0.00
  HS02004799HS02004480    1.00   0.00  0.02  0.00  0.94  0.00  0.03  0.00  0.00  0.00
  HS02004792HS02004799    1.00   0.00  0.00  0.00  0.99  0.01  0.00  0.00  0.98  0.00
  HS02004788HS02004792    1.00   0.00  0.00  0.00  0.99  0.01  0.00  0.00  0.98  0.00
  HS02004785HS02004788    1.00   0.00  0.00  0.00  1.00  0.00  0.00  0.00  0.00  0.00
  HS02004777HS02004785    1.00   0.00  0.00  0.00  1.00  0.00  0.00  0.00  0.20  0.00
  HS02004480HS02004478    1.00   0.05  0.00  0.00  0.71  0.00  0.00  0.25  0.00  0.00
  HS02004479HS02004480    1.00   0.03  0.00  0.00  0.97  0.00  0.00  0.00  0.15  0.00
  HS02004862HS02004870    1.00   0.00  0.00  0.00  1.00  0.00  0.00  0.00  0.06  0.00
  HS02004848HS02004852    1.00   0.04  0.00  0.00  0.96  0.00  0.00  0.00  0.71  0.00
  HS02004856HS02004862    1.00   0.00  0.06  0.00  0.94  0.00  0.00  0.00  0.75  0.00
  HS02004852HS02004856    1.00   0.04  0.01  0.00  0.95  0.00  0.00  0.00  0.83  0.00
  HS02004802HS02004478    1.00   0.04  0.00  0.00  0.95  0.00  0.00  0.00  0.01  0.00
  HS02004478WS02006287    1.00   0.05  0.00  0.00  0.81  0.14  0.00  0.00  0.73  0.00
  HS02004817HS02004807    1.00   0.00  0.04  0.00  0.96  0.00  0.00  0.00  0.00  0.00
  HS02004807HS02004802    1.00   0.04  0.00  0.00  0.95  0.00  0.00  0.00  0.01  0.00
  YS02001759YS02001757    1.00   0.00  0.00  0.00  1.00  0.00  0.00  0.00  0.17  0.00
  YS02001762YS02001759    1.00   0.00  0.00  0.00  1.00  0.00  0.00  0.00  0.04  0.00
  YS02001765YS02001762    1.00   0.00  0.00  0.00  1.00  0.00  0.00  0.00  0.21  0.00
  YS02001770YS02001767    1.00   0.00  0.00  0.00  1.00  0.00  0.00  0.00  0.00  0.00
  YS02001774YS02001770    1.00   0.00  0.05  0.00  0.95  0.00  0.00  0.00  0.06  0.00
  YS02001779YS02001774    1.00   0.00  0.00  0.00  1.00  0.00  0.00  0.00  0.26  0.00
  YS02001649YS02001757    1.00   0.00  0.00  0.00  1.00  0.00  0.00  0.00  0.19  0.00
  YS02001767YS02001765    1.00   0.00  0.00  0.00  1.00  0.00  0.00  0.00  0.01  0.00
  YS02006561YS02001783    1.00   0.07  0.00  0.00  0.74  0.19  0.00  0.00  0.63  0.00
  YS02001783YS02001784    1.00   0.00  0.07  0.00  0.93  0.00  0.00  0.00  0.00  0.00
  YS02001784YS02001785    1.00   0.00  0.00  0.00  1.00  0.00  0.00  0.00  0.24  0.00
  YS02001788YS02001790    1.00   0.00  0.00  0.00  0.81  0.19  0.00  0.00  0.26  0.00
  YS02001790YS02001791    1.00   0.00  0.00  0.00  0.76  0.24  0.00  0.00  0.12  0.00
  YS02001791YS02001793    1.00   0.00  0.00  0.00  0.75  0.25  0.00  0.00  0.00  0.00
  YS02001910YS02001907    1.00   0.00  0.00  0.00  0.97  0.00  0.00  0.02  0.13  0.00
  YS02001786YS02001788    1.00   0.00  0.00  0.00  0.81  0.19  0.00  0.00  0.00  0.00
  YS02001915YS02001910    1.00   0.00  0.00  0.00  0.99  0.01  0.00  0.00  0.23  0.00
  YS02001918YS02001915    1.00   0.00  0.01  0.00  0.98  0.01  0.00  0.00  0.67  0.00
  YS02001923YS02001920    1.00   0.00  0.00  0.00  1.00  0.00  0.00  0.00  1.00  0.00
  YS02001926YS02001923    1.00   0.00  0.03  0.00  0.00  0.00  0.97  0.00  0.00  0.00
  YS02001929YS02001926    1.00   0.00  0.04  0.00  0.96  0.00  0.00  0.00  0.87  0.00
  YS02001920YS02001918    1.00   0.00  0.01  0.00  0.99  0.00  0.00  0.00  0.00  0.00
  YS02001629YS02163301    1.00   0.06  0.00  0.00  0.94  0.00  0.00  0.00  0.00  0.00
  YS02001619YS02001622    1.00   0.04  0.00  0.00  0.96  0.00  0.00  0.00  0.00  0.00
  YS02001622YS02001625    1.00   0.04  0.00  0.00  0.96  0.00  0.00  0.00  0.12  0.00
  YS02001625YS02001629    1.00   0.04  0.02  0.00  0.92  0.00  0.01  0.00  0.00  0.00
  YS02163301YS02001633    1.00   0.00  0.06  0.00  0.94  0.00  0.00  0.00  0.00  0.00
  YS02163601YS02164001    1.00   0.00  0.03  0.00  0.97  0.00  0.00  0.00  0.00  0.00
  YS02164001YS02001641    1.00   0.01  0.03  0.00  0.96  0.00  0.00  0.00  0.07  0.00
  YS02001641YS02001644    1.00   0.00  0.01  0.00  0.99  0.00  0.00  0.00  0.00  0.00
  YS02001647YS02001649    1.00   0.00  0.06  0.00  0.93  0.00  0.00  0.00  0.01  0.00
  YS02006553YS02006556    1.00   0.01  0.00  0.00  0.99  0.00  0.00  0.00  0.03  0.00
  YS02006556YS02006558    1.00   0.00  0.00  0.00  1.00  0.00  0.00  0.00  0.00  0.00
  YSB6556YSB1171          1.00   0.03  0.01  0.00  0.96  0.00  0.00  0.00  0.00  0.00
  YS02001907YS02006553    1.00   0.00  0.02  0.00  0.98  0.00  0.00  0.00  0.00  0.00
  YS02006558YS02006561    1.00   0.07  0.00  0.00  0.00  0.93  0.00  0.00  0.59  0.00
  YS02001633YS02163601    1.00   0.00  0.01  0.00  0.99  0.00  0.00  0.00  0.19  0.00
  YS02001644YS02001647    1.00   0.00  0.07  0.00  0.93  0.00  0.00  0.00  0.00  0.00
  YS02001745YS02001748    1.00   0.00  0.00  0.00  0.89  0.01  0.00  0.10  0.06  0.00
  YS02001748YS02001751    1.00   0.00  0.00  0.00  0.98  0.02  0.00  0.00  0.22  0.00
  YS02001751YS02001754    1.00   0.00  0.00  0.00  0.93  0.00  0.00  0.07  0.01  0.00
  YS02001754YS02001757    1.00   0.00  0.00  0.00  0.99  0.01  0.00  0.00  0.25  0.00
  YS02001882YS02001884    1.00   0.06  0.00  0.00  0.94  0.00  0.00  0.00  0.00  0.00
  YS02001884YS02001887    1.00   0.03  0.01  0.00  0.96  0.00  0.00  0.00  0.00  0.00
  YS02001890YS02001895    1.00   0.00  0.06  0.00  0.94  0.00  0.00  0.00  0.00  0.00
  YS02001895YS02001898    1.00   0.06  0.00  0.00  0.93  0.00  0.01  0.00  0.00  0.00
  YS02001898YS02001901    1.00   0.06  0.00  0.00  0.94  0.00  0.00  0.00  0.02  0.00
  YS02001901YS02001904    1.00   0.06  0.00  0.00  0.94  0.00  0.00  0.00  0.00  0.00
  YS02001904YS02001907    1.00   0.00  0.06  0.00  0.94  0.00  0.00  0.00  0.00  0.00
  YS02001887YS02001890    1.00   0.00  0.00  0.00  0.97  0.00  0.02  0.00  0.00  0.00
  YS02001652YS02001649    1.00   0.00  0.00  0.00  1.00  0.00  0.00  0.00  0.25  0.00
  YS02001655YS02001652    1.00   0.00  0.00  0.00  0.93  0.00  0.00  0.07  0.01  0.00
  YS02001658YS02001655    1.00   0.00  0.05  0.00  0.92  0.03  0.00  0.00  0.08  0.00
  YS02001661YS02001658    1.00   0.05  0.00  0.00  0.88  0.06  0.00  0.00  0.07  0.00
  YS02001664YS02001661    1.00   0.04  0.00  0.00  0.82  0.14  0.00  0.00  0.34  0.00
  YSB1154YSB6556          1.00   0.04  0.00  0.00  0.96  0.00  0.00  0.00  0.02  0.00
  YSB1174YSB1171          1.00   0.03  0.01  0.00  0.96  0.00  0.00  0.00  0.00  0.00
  YSB1171HS02004479       1.00   0.03  0.00  0.00  0.97  0.00  0.00  0.00  0.13  0.00
  HS02004881HS02006253    1.00   0.03  0.00  0.00  0.91  0.00  0.00  0.06  0.71  0.00
  YS02001793JiankangQianchi    1.00   0.00  0.00  0.00  0.80  0.20  0.00  0.00  0.04  0.00
  YS02001757CaochengTiaoxuchi    1.00   0.00  0.08  0.00  0.91  0.01  0.00  0.00  0.00  0.00
  WSF200WS02003060        1.00   0.00  0.06  0.00  0.94  0.00  0.00  0.00  0.64  0.00
  1                       1.00   0.00  0.00  0.00  0.00  1.00  0.00  0.00  0.63  0.00
  2                       1.00   0.91  0.00  0.00  0.00  0.09  0.00  0.00  0.02  0.00
  3                       1.00   0.82  0.00  0.00  0.00  0.18  0.00  0.00  0.25  0.00
  4                       1.00   1.00  0.00  0.00  0.00  0.00  0.00  0.00  0.00  0.00
  
  
  *************************
  Conduit Surcharge Summary
  *************************
  
  ----------------------------------------------------------------------------
                                                           Hours        Hours 
                         --------- Hours Full --------   Above Full   Capacity
  Conduit                Both Ends  Upstream  Dnstream   Normal Flow   Limited
  ----------------------------------------------------------------------------
  WS02006229WS02006228        0.84      0.86      0.84      1.11         0.84
  WS02006256WS02006235        5.79      5.80      6.55      0.50         0.01
  WS02006249WS02006248        0.01      0.01      0.01      5.59         0.01
  WS02006247WS02006245        0.01      0.01      0.01      5.59         0.01
  WS02006243WS02006242        0.01      0.01      0.36      0.01         0.01
  WS02006242WS02006240        0.18      0.18      0.51      0.02         0.01
  WS02006240WS02006239        0.24      0.24      0.37      0.01         0.01
  WS02006239WS02006238        0.55      0.55      0.60      0.01         0.01
  WS02006238WS02006235        0.59      0.59      0.65      0.01         0.01
  WS02006235WS02006234        0.40      0.40      0.56      5.81         0.01
  WS02006234WS02006232        0.51      0.51      0.69      0.01         0.01
  WS02006232WS02006231        0.16      0.16      0.69      0.01         0.01
  WS02006231WS02006230        0.01      0.01      0.21      5.81         0.01
  WS02006230WS02006229        0.95      1.00      0.95      5.89         0.94
  WS02006228WS02006109        0.85      0.90      0.85      2.53         0.84
  WS02006112WS02006115        0.01      0.01      0.60      0.01         0.01
  WS02006111WS02006112        0.01      0.01      1.20      0.01         0.01
  WS02006110WS02006113        0.01      0.01      0.87      0.01         0.01
  WS02006109WS02006110        0.39      0.39      0.90      0.40         0.01
  WS02004405WS02004406        0.01      0.01      0.01      0.50         0.01
  WS02004404WS02004405        0.01      0.01      0.01      5.69         0.01
  WS02003072WS02003073        0.01      0.01      0.01      5.59         0.01
  HS02004480HS02004478        0.01      0.01      0.01      0.04         0.01
  YS02001759YS02001757        5.47      5.47      5.52      0.01         0.01
  YS02001762YS02001759        5.46      5.46      5.47      0.01         0.02
  YS02001765YS02001762        5.42      5.42      5.46      0.01         0.01
  YS02001770YS02001767        5.37      5.37      5.38      0.01         0.64
  YS02001774YS02001770        5.30      5.30      5.45      0.01         0.01
  YS02001779YS02001774        4.91      4.91      5.45      0.01         0.01
  YS02001649YS02001757        5.46      5.46      5.52      0.01         0.01
  YS02001767YS02001765        5.38      5.38      5.42      0.01         0.02
  YS02001783YS02001784        0.01      0.01      0.01      0.01         0.01
  YS02001784YS02001785        0.01      0.01      0.01      0.85         0.01
  YS02001788YS02001790        0.01      0.01      4.70      0.01         0.01
  YS02001790YS02001791        4.70      4.70      4.71      0.01         0.01
  YS02001791YS02001793        4.71      4.71      4.74      0.01         0.01
  YS02001786YS02001788        0.01      0.01      0.01      0.02         0.01
  YS02001629YS02163301        5.31      5.31      5.35      0.01         0.01
  YS02001619YS02001622        4.25      4.26      4.36      0.01         0.01
  YS02001622YS02001625        4.36      4.36      5.23      0.01         0.01
  YS02001625YS02001629        4.31      4.31      5.23      0.01         0.01
  YS02163301YS02001633        5.35      5.35      5.43      0.01         0.01
  YS02163601YS02164001        5.43      5.43      5.46      0.01         0.01
  YS02164001YS02001641        5.43      5.43      5.43      0.01         0.01
  YS02001641YS02001644        5.43      5.43      5.44      0.01         0.92
  YS02001647YS02001649        5.21      5.21      5.46      0.01         0.01
  YS02006556YS02006558        0.01      0.01      0.01      0.01         0.01
  YS02001907YS02006553        0.88      0.88      1.10      0.01         0.01
  YS02006558YS02006561        0.01      0.01      0.01      0.68         0.01
  YS02001633YS02163601        5.42      5.42      5.46      0.01         0.01
  YS02001644YS02001647        5.21      5.21      5.44      0.01         0.01
  YS02001745YS02001748        0.01      0.01      3.67      0.01         0.01
  YS02001748YS02001751        3.91      3.91      4.38      0.01         0.01
  YS02001751YS02001754        4.38      4.38      5.04      0.01         0.01
  YS02001754YS02001757        5.21      5.21      5.52      0.01         0.01
  YS02001652YS02001649        5.22      5.22      5.46      0.01         0.01
  YS02001655YS02001652        4.44      4.44      5.19      0.01         0.01
  YS02001658YS02001655        3.63      3.63      4.44      0.01         0.01
  YS02001661YS02001658        0.01      0.01      3.63      0.01         0.01
  YS02001664YS02001661        0.01      0.01      0.17      0.01         0.01
  YS02001793JiankangQianchi        4.73      4.73      4.97      0.01         0.01
  YS02001757CaochengTiaoxuchi        4.01      4.01      5.52      0.01         0.01
  
  
  ***************
  Pumping Summary
  ***************
  
  ---------------------------------------------------------------------------------------------------------
                                                  Min       Avg       Max     Total     Power    % Time Off
                        Percent   Number of      Flow      Flow      Flow    Volume     Usage    Pump Curve
  Pump                 Utilized   Start-Ups       LPS       LPS       LPS  10^6 ltr     Kw-hr    Low   High
  ---------------------------------------------------------------------------------------------------------
  CC-Pump-1               63.83           1      0.00    196.16    200.00     3.540      3.95    0.0    0.0
  CC-Pump-2               10.39           1      0.00    175.09    200.00     0.502      1.94    0.0   69.5
  JK-Pump-1               38.30           1      0.00    212.75    300.00     0.987     18.82    0.0    0.0
  JK-Pump-2               14.89           1      0.00    246.12    300.00     0.801     15.90    0.0    0.0
  XR-Pump-1              100.00           1      0.00     95.00     95.00     2.679     25.53    0.0    0.0
  XR-Pump-2               14.89           1      0.00     86.15     95.00     0.342      4.35    0.0    0.0
  XR-Pump-3              100.00           1      0.00     95.00     95.00     2.679     25.53    0.0    0.0
  XR-Pump-4               76.59           1      0.00     94.75     95.00     2.023     18.22    0.0    0.0
  

  Analysis begun on:  Tue Dec 21 18:42:08 2021
  Analysis ended on:  Tue Dec 21 18:42:11 2021
  Total elapsed time: 00:00:03