
  EPA STORM WATER MANAGEMENT MODEL - VERSION 5.1 (Build 5.3.0.dev0)
  --------------------------------------------------------------

  WARNING 04: minimum elevation drop used for Conduit WS02004404WS02004405
  WARNING 03: negative offset ignored for Link YS02001904YS02001907
  
  *********************************************************
  NOTE: The summary statistics displayed in this report are
  based on results found at every computational time step,  
  not just on results from each reporting time step.
  *********************************************************
  
  ****************
  Analysis Options
  ****************
  Flow Units ............... LPS
  Process Models:
    Rainfall/Runoff ........ YES
    RDII ................... NO
    Snowmelt ............... NO
    Groundwater ............ NO
    Flow Routing ........... YES
    Ponding Allowed ........ NO
    Water Quality .......... NO
  Infiltration Method ...... HORTON
  Flow Routing Method ...... DYNWAVE
  Surcharge Method ......... EXTRAN
  Starting Date ............ 08/28/2015 08:00:00
  Ending Date .............. 08/28/2015 15:50:00
  Antecedent Dry Days ...... 8.0
  Report Time Step ......... 00:01:00
  Wet Time Step ............ 00:01:00
  Dry Time Step ............ 00:01:00
  Routing Time Step ........ 5.00 sec
  Variable Time Step ....... YES
  Maximum Trials ........... 8
  Number of Threads ........ 4
  Head Tolerance ........... 0.001500 m
  
  
  **************************        Volume         Depth
  Runoff Quantity Continuity     hectare-m            mm
  **************************     ---------       -------
  Total Precipitation ......         2.691         5.892
  Evaporation Loss .........         0.000         0.000
  Infiltration Loss ........         0.676         1.480
  Surface Runoff ...........         1.133         2.480
  Final Storage ............         0.883         1.933
  Continuity Error (%) .....        -0.018
  
  
  **************************        Volume        Volume
  Flow Routing Continuity        hectare-m      10^6 ltr
  **************************     ---------     ---------
  Dry Weather Inflow .......         0.616         6.165
  Wet Weather Inflow .......         1.132        11.321
  Groundwater Inflow .......         0.000         0.000
  RDII Inflow ..............         0.000         0.000
  External Inflow ..........         0.102         1.024
  External Outflow .........         1.981        19.806
  Flooding Loss ............         0.000         0.000
  Evaporation Loss .........         0.000         0.000
  Exfiltration Loss ........         0.000         0.000
  Initial Stored Volume ....         0.076         0.761
  Final Stored Volume ......         0.315         3.151
  Continuity Error (%) .....       -19.129
  
  
  *************************
  Highest Continuity Errors
  *************************
  Node JK-storage (-90.50%)
  Node HS02004842 (28.52%)
  Node YS02001884 (22.90%)
  Node YS02001774 (11.13%)
  Node YSB1171 (6.99%)
  
  
  ***************************
  Time-Step Critical Elements
  ***************************
  Link WS02006252WS02006251 (49.22%)
  Link 3 (44.81%)
  Link WS02006280WS02006229 (1.71%)
  Link WS02006238WS02006235 (1.20%)
  
  
  ********************************
  Highest Flow Instability Indexes
  ********************************
  Link WS02006113WS02006111 (38)
  Link WS02006111WS02006112 (22)
  Link YS02006558YS02006561 (14)
  Link YS02164001YS02001641 (5)
  Link YS02001641YS02001644 (5)
  
  
  *************************
  Routing Time Step Summary
  *************************
  Minimum Time Step           :     0.50 sec
  Average Time Step           :     0.83 sec
  Maximum Time Step           :     5.00 sec
  Percent in Steady State     :    -0.00
  Average Iterations per Step :     2.55
  Percent Not Converging      :     6.95
  
  
  ***************************
  Subcatchment Runoff Summary
  ***************************
  
  ------------------------------------------------------------------------------------------------------------------------------
                            Total      Total      Total      Total     Imperv       Perv      Total       Total     Peak  Runoff
                           Precip      Runon       Evap      Infil     Runoff     Runoff     Runoff      Runoff   Runoff   Coeff
  Subcatchment                 mm         mm         mm         mm         mm         mm         mm    10^6 ltr      LPS
  ------------------------------------------------------------------------------------------------------------------------------
  sub0                       5.89       0.00       0.00       0.41       4.21       0.00       4.21        0.00     1.47   0.715
  sub1                       5.89       0.00       0.00       0.65       3.99       0.00       3.99        0.03     7.65   0.677
  sub2                       5.89       0.00       0.00       2.18       2.81       0.00       2.81        0.03     6.74   0.476
  sub3                       5.89       0.00       0.00       2.18       2.77       0.00       2.77        0.06    13.82   0.470
  sub4                       5.89       0.00       0.00       0.65       3.85       0.00       3.85        0.08    15.45   0.654
  sub5                       5.89       0.00       0.00       0.41       4.17       0.00       4.17        0.05    13.60   0.707
  sub7                       5.89       0.00       0.00       0.53       4.11       0.00       4.11        0.01     4.82   0.697
  sub8                       5.89       0.00       0.00       0.53       4.10       0.00       4.10        0.03     8.49   0.696
  sub9                       5.89       0.00       0.00       0.53       4.10       0.00       4.10        0.02     6.29   0.695
  sub10                      5.89       0.00       0.00       0.47       4.13       0.00       4.13        0.05    13.58   0.701
  sub11                      5.89       0.00       0.00       0.47       4.15       0.00       4.15        0.05    15.97   0.704
  sub12                      5.89       0.00       0.00       0.77       3.94       0.00       3.94        0.03    13.59   0.668
  sub14                      5.89       0.00       0.00       0.53       4.09       0.00       4.09        0.04    12.29   0.695
  sub15                      5.89       0.00       0.00       1.77       3.15       0.00       3.15        0.05    16.66   0.534
  sub16                      5.89       0.00       0.00       1.94       3.03       0.00       3.03        0.03    11.93   0.514
  sub17                      5.89       0.00       0.00       1.89       3.07       0.00       3.07        0.03     9.64   0.522
  sub22                      5.89       0.00       0.00       2.53       2.57       0.00       2.57        0.16    54.70   0.436
  sub23                      5.89       0.00       0.00       2.18       2.84       0.00       2.84        0.14    46.61   0.482
  sub60                      5.89       0.00       0.00       0.71       2.76       0.00       2.76        0.84    76.77   0.469
  sub61                      5.89       0.00       0.00       1.00       2.95       0.00       2.95        0.91    96.90   0.501
  sub62                      5.89       0.00       0.00       0.47       3.17       0.00       3.17        0.97    98.85   0.538
  sub63                      5.89       0.00       0.00       1.71       2.63       0.00       2.63        0.80    90.67   0.447
  sub64                      5.89       0.00       0.00       0.88       2.64       0.00       2.64        0.80    72.89   0.448
  sub65                      5.89       0.00       0.00       0.77       2.67       0.00       2.67        0.82    73.94   0.453
  sub66                      5.89       0.00       0.00       1.71       2.30       0.00       2.30        0.71    66.93   0.391
  sub67                      5.89       0.00       0.00       0.47       3.49       0.00       3.49        1.08   127.64   0.592
  sub68                      5.89       0.00       0.00       0.82       3.14       0.00       3.14        0.97   107.31   0.534
  sub69                      5.89       0.00       0.00       0.88       3.40       0.00       3.40        0.79   107.30   0.576
  sub70                      5.89       3.47       0.00       3.18       4.16       0.00       4.16        0.95    85.44   0.445
  sub71                      5.89       0.00       0.00       0.47       3.03       0.00       3.03        0.72    68.84   0.514
  sub72                      5.89       0.00       0.00       0.41       2.13       0.00       2.13        0.43    32.41   0.362
  sub73                      5.89       4.05       0.00       3.38       4.23       0.00       4.23        0.99    73.37   0.426
  sub74                      5.89       0.00       0.00       4.42       1.02       0.00       1.02        0.41    60.02   0.174
  
  
  ******************
  Node Depth Summary
  ******************
  
  ---------------------------------------------------------------------------------
                                 Average  Maximum  Maximum  Time of Max    Reported
                                   Depth    Depth      HGL   Occurrence   Max Depth
  Node                 Type       Meters   Meters   Meters  days hr:min      Meters
  ---------------------------------------------------------------------------------
  WS02001211           JUNCTION     0.72     0.79     5.63     0  02:45        0.79
  WS02001212           JUNCTION     0.44     0.50     5.57     0  02:44        0.50
  WS02001213           JUNCTION     0.67     0.75     5.51     0  02:44        0.75
  WS02003069           JUNCTION     0.47     0.57     5.15     0  02:43        0.57
  WS02003072           JUNCTION     0.53     0.63     5.00     0  02:43        0.63
  WS02003073           JUNCTION     0.32     0.39     4.45     0  02:44        0.39
  WS02003060           JUNCTION     0.42     0.50     5.43     0  02:42        0.50
  WS02003066           JUNCTION     0.23     0.29     5.84     0  02:40        0.29
  WS02003059           JUNCTION     0.72     0.80     5.49     0  02:43        0.80
  WS02003067           JUNCTION     0.57     0.69     6.01     0  02:40        0.69
  WS02004401           JUNCTION     0.67     0.82     6.82     0  02:36        0.82
  WS02004402           JUNCTION     0.70     0.85     6.81     0  02:36        0.85
  WS02004403           JUNCTION     0.72     0.87     6.80     0  02:36        0.87
  WS02004404           JUNCTION     0.80     0.94     6.79     0  02:36        0.94
  WS02004406           JUNCTION     0.81     0.94     6.77     0  02:36        0.94
  WS02004409           JUNCTION     0.49     0.64     6.41     0  02:39        0.64
  WS02004410           JUNCTION     0.51     0.66     6.38     0  02:39        0.66
  WS02004411           JUNCTION     0.53     0.67     6.35     0  02:39        0.67
  WS02004412           JUNCTION     0.54     0.68     6.32     0  02:40        0.68
  WS02004413           JUNCTION     0.70     0.84     6.31     0  02:40        0.84
  WS02004405           JUNCTION     0.79     0.93     6.78     0  02:36        0.93
  WS02006109           JUNCTION     0.75     0.93     7.55     0  02:32        0.93
  WS02006110           JUNCTION     0.74     0.89     7.48     0  02:32        0.89
  WS02006111           JUNCTION     0.22     0.28     6.98     0  02:33        0.28
  WS02006112           JUNCTION     0.84     1.01     6.90     0  02:36        1.01
  WS02006113           JUNCTION     0.34     0.44     7.33     0  02:33        0.44
  WS02006115           JUNCTION     0.56     0.72     6.86     0  02:35        0.72
  WS02006116           JUNCTION     0.64     0.80     6.84     0  02:36        0.80
  WS02006230           JUNCTION     0.71     0.95     7.70     0  02:33        0.95
  WS02006231           JUNCTION     0.47     0.63     7.75     0  02:34        0.63
  WS02006232           JUNCTION     0.61     0.75     7.79     0  02:35        0.75
  WS02006234           JUNCTION     0.53     0.68     7.84     0  02:36        0.68
  WS02006235           JUNCTION     0.56     0.71     7.88     0  02:37        0.71
  WS02006238           JUNCTION     0.58     0.74     7.88     0  02:37        0.74
  WS02006240           JUNCTION     0.47     0.63     7.92     0  02:37        0.63
  WS02006242           JUNCTION     0.52     0.68     7.95     0  02:38        0.68
  WS02006243           JUNCTION     0.40     0.55     7.97     0  02:38        0.55
  WS02006245           JUNCTION     0.38     0.51     8.00     0  02:38        0.51
  WS02006247           JUNCTION     0.40     0.52     8.02     0  02:38        0.52
  WS02006248           JUNCTION     0.34     0.45     8.04     0  02:38        0.45
  WS02006249           JUNCTION     0.38     0.48     8.07     0  02:38        0.48
  WS02006239           JUNCTION     0.54     0.70     7.90     0  02:37        0.69
  WS02006251           JUNCTION     0.37     0.45     8.12     0  02:38        0.45
  WS02006252           JUNCTION     0.31     0.35     8.59     0  02:21        0.35
  WS02006253           JUNCTION     0.39     0.48     8.12     0  02:38        0.48
  WS02006256           JUNCTION     1.08     1.20     8.14     0  02:37        1.20
  WS02004138           JUNCTION     0.17     0.19     7.44     0  02:00        0.19
  WS02004407           JUNCTION     0.22     0.29     6.60     0  02:37        0.29
  WS02006228           JUNCTION     0.74     0.96     7.61     0  02:32        0.96
  WS02006229           JUNCTION     0.72     0.95     7.64     0  02:32        0.95
  WS02006280           JUNCTION     0.06     0.15     8.42     0  02:17        0.15
  WS02006284           JUNCTION     0.35     0.48     8.88     0  02:17        0.48
  WS02006287           JUNCTION     0.08     0.21     9.17     0  02:17        0.21
  WSF200               JUNCTION     0.21     0.29     5.52     0  02:40        0.29
  HS02004901           JUNCTION     0.11     0.23    10.06     0  02:15        0.23
  HS02004881           JUNCTION     0.01     0.02     9.05     0  02:17        0.02
  HS02004876           JUNCTION     0.04     0.10     9.13     0  02:15        0.10
  HS02004870           JUNCTION     0.01     0.04     9.33     0  02:17        0.04
  HS02004862           JUNCTION     0.01     0.05     9.43     0  02:18        0.05
  HS02004856           JUNCTION     0.07     0.10     9.53     0  02:17        0.10
  HS02004852           JUNCTION     0.01     0.03     9.54     0  02:19        0.03
  HS02004848           JUNCTION     0.01     0.03     9.63     0  02:17        0.03
  HS02004842           JUNCTION     0.33     0.36     9.63     0  02:16        0.36
  HS02004837           JUNCTION     0.03     0.05     9.63     0  02:17        0.05
  HS02004830           JUNCTION     0.04     0.06     9.53     0  02:17        0.06
  HS02004824           JUNCTION     0.02     0.04     9.44     0  02:20        0.04
  HS02004817           JUNCTION     0.42     0.53     9.37     0  02:18        0.53
  HS02004807           JUNCTION     0.11     0.20     9.37     0  02:18        0.20
  HS02004802           JUNCTION     0.15     0.24     9.37     0  02:18        0.24
  HS02004799           JUNCTION     0.10     0.26     9.47     0  02:16        0.26
  HS02004792           JUNCTION     0.02     0.10     9.62     0  02:15        0.10
  HS02004788           JUNCTION     0.02     0.07     9.97     0  02:16        0.07
  HS02004785           JUNCTION     0.04     0.14    10.04     0  02:15        0.14
  HS02004777           JUNCTION     0.13     0.25    10.05     0  02:15        0.25
  HS02004770           JUNCTION     0.10     0.22    10.06     0  02:15        0.22
  HS02004480           JUNCTION     0.07     0.20     9.44     0  02:16        0.20
  HS02004479           JUNCTION     0.10     0.24     9.44     0  02:16        0.24
  HS02004478           JUNCTION     0.05     0.13     9.36     0  02:17        0.13
  YS02001745           JUNCTION     0.10     0.21     7.72     0  05:29        0.20
  YS02001748           JUNCTION     0.44     0.63     7.70     0  05:20        0.62
  YS02001751           JUNCTION     0.62     0.84     7.72     0  05:29        0.84
  YS02001754           JUNCTION     0.87     1.19     7.80     0  05:22        1.18
  YS02001762           JUNCTION     1.06     1.52     7.92     0  05:49        1.36
  YS02001765           JUNCTION     1.02     1.54     7.99     0  05:49        1.33
  YS02001767           JUNCTION     0.98     1.58     8.07     0  05:49        1.32
  YS02001770           JUNCTION     0.98     1.68     8.18     0  05:49        1.36
  YS02001774           JUNCTION     1.04     1.79     8.22     0  05:49        1.45
  YS02001779           JUNCTION     0.80     1.55     8.24     0  05:49        1.21
  YS02001882           JUNCTION     0.29     0.46     7.17     0  02:50        0.46
  YS02001884           JUNCTION     0.38     0.56     7.17     0  02:50        0.56
  YS02001759           JUNCTION     1.10     1.47     7.83     0  05:49        1.36
  YS02001887           JUNCTION     0.46     0.64     7.17     0  02:50        0.64
  YS02001890           JUNCTION     0.49     0.67     7.17     0  02:50        0.67
  YS02001898           JUNCTION     0.26     0.42     7.16     0  02:52        0.42
  YS02001901           JUNCTION     0.38     0.55     7.16     0  02:51        0.55
  YS02001904           JUNCTION     0.36     0.52     7.15     0  02:51        0.52
  YS02001907           JUNCTION     0.69     0.87     7.16     0  02:51        0.87
  YS02001910           JUNCTION     0.48     0.65     7.16     0  02:51        0.65
  YS02001915           JUNCTION     0.28     0.44     7.15     0  02:50        0.44
  YS02001918           JUNCTION     0.08     0.10     7.16     0  03:03        0.10
  YS02001619           JUNCTION     0.58     0.77     7.70     0  05:19        0.77
  YS02001629           JUNCTION     0.93     1.17     7.72     0  05:19        1.16
  YS02001641           JUNCTION     1.03     1.32     7.75     0  05:22        1.30
  YS02001644           JUNCTION     1.04     1.32     7.75     0  05:18        1.31
  YS02001652           JUNCTION     0.88     1.16     7.76     0  04:39        1.11
  YS02001655           JUNCTION     0.64     0.87     7.72     0  05:14        0.85
  YS02001920           JUNCTION     0.17     0.21     7.21     0  03:02        0.21
  YS02001923           JUNCTION     0.06     0.08     7.34     0  03:02        0.08
  YS02001926           JUNCTION     0.14     0.18     7.62     0  03:01        0.18
  YS02001929           JUNCTION     0.07     0.09     7.78     0  03:01        0.09
  YS02001658           JUNCTION     0.38     0.57     7.71     0  05:16        0.57
  YS02001661           JUNCTION     0.19     0.30     7.70     0  05:27        0.29
  YS02001664           JUNCTION     0.07     0.12     8.04     0  02:43        0.12
  YS02001622           JUNCTION     0.60     0.79     7.69     0  05:20        0.78
  YS02001633           JUNCTION     1.02     1.29     7.74     0  05:17        1.26
  YS02001649           JUNCTION     1.07     1.35     7.74     0  05:22        1.31
  YS02001757           JUNCTION     1.20     1.50     7.76     0  05:22        1.46
  YS02001895           JUNCTION     0.26     0.42     7.17     0  02:50        0.42
  YS02001625           JUNCTION     0.88     1.12     7.72     0  05:32        1.09
  YS02163301           JUNCTION     0.96     1.21     7.72     0  05:17        1.19
  YS02163601           JUNCTION     1.07     1.35     7.75     0  05:22        1.33
  YS02164001           JUNCTION     1.01     1.29     7.75     0  06:02        1.28
  YS02001647           JUNCTION     0.87     1.15     7.76     0  05:18        1.13
  YSB1154              JUNCTION     0.24     0.39     9.45     0  02:16        0.39
  YSB6556              JUNCTION     0.13     0.28     9.44     0  02:16        0.28
  YSB1174              JUNCTION     0.19     0.34     9.44     0  02:16        0.34
  YSB1171              JUNCTION     0.39     0.54     9.44     0  02:16        0.54
  YS02006553           JUNCTION     0.69     0.87     7.15     0  02:51        0.87
  YS02006561           JUNCTION     0.14     0.23     6.89     0  02:51        0.23
  YS02006556           JUNCTION     0.66     0.84     7.15     0  02:51        0.84
  YS02006558           JUNCTION     0.71     0.88     7.15     0  02:51        0.88
  YS02001783           JUNCTION     0.25     0.41     6.55     0  02:51        0.41
  YS02001784           JUNCTION     0.28     0.43     6.50     0  02:52        0.43
  YS02001786           JUNCTION     0.24     0.37     6.40     0  02:52        0.37
  YS02001788           JUNCTION     0.17     0.28     6.25     0  02:52        0.28
  YS02001790           JUNCTION     0.21     0.34     5.98     0  02:53        0.34
  YS02001791           JUNCTION     0.14     0.21     5.68     0  02:53        0.21
  YS02001793           JUNCTION     0.09     0.14     4.97     0  02:53        0.14
  WS02004139           JUNCTION     0.67     0.73     5.64     0  02:45        0.73
  WSC                  OUTFALL      0.32     0.39     1.06     0  02:44        0.39
  3                    OUTFALL      0.11     0.20     6.20     0  02:37        0.20
  4                    OUTFALL      0.00     0.00     7.00     0  00:00        0.00
  5                    OUTFALL      0.00     0.00     5.00     0  00:00        0.00
  JK-storage           STORAGE      0.03     3.00     3.80     0  00:00        2.70
  CC-storage           STORAGE      0.44     0.66     7.66     0  05:24        0.66
  XR-storage           STORAGE      1.26     5.59     3.59     0  01:50        5.59
  
  
  *******************
  Node Inflow Summary
  *******************
  
  -------------------------------------------------------------------------------------------------
                                  Maximum  Maximum                  Lateral       Total        Flow
                                  Lateral    Total  Time of Max      Inflow      Inflow     Balance
                                   Inflow   Inflow   Occurrence      Volume      Volume       Error
  Node                 Type           LPS      LPS  days hr:min    10^6 ltr    10^6 ltr     Percent
  -------------------------------------------------------------------------------------------------
  WS02001211           JUNCTION      7.35   387.93     0  03:00       0.207        8.41       0.444
  WS02001212           JUNCTION      0.00   388.23     0  02:59           0        8.37       0.250
  WS02001213           JUNCTION      0.00   388.52     0  02:59           0        8.35       0.275
  WS02003069           JUNCTION      0.32   903.25     0  02:42     0.00902        15.7       0.199
  WS02003072           JUNCTION      0.00   903.24     0  02:43           0        15.7       0.241
  WS02003073           JUNCTION      1.82   905.07     0  02:43      0.0514        15.7       0.273
  WS02003060           JUNCTION     16.53   902.91     0  02:42       0.466        15.7       0.188
  WS02003066           JUNCTION      0.00   500.90     0  02:40           0        6.98       0.065
  WS02003059           JUNCTION      0.00   388.98     0  02:58           0        8.33       0.472
  WS02003067           JUNCTION      0.00   500.88     0  02:40           0        6.99       0.136
  WS02004401           JUNCTION      0.00   503.13     0  02:34           0        7.23       0.303
  WS02004402           JUNCTION      0.00   502.87     0  02:35           0        7.21       0.285
  WS02004403           JUNCTION      0.00   502.68     0  02:35           0        7.19       0.259
  WS02004404           JUNCTION      0.16   502.78     0  02:36     0.00457        7.17       0.195
  WS02004406           JUNCTION      0.00   502.79     0  02:36           0        7.14       0.475
  WS02004409           JUNCTION      0.00   502.76     0  02:37           0         7.1       0.237
  WS02004410           JUNCTION      0.00   501.93     0  02:37           0        7.08       0.267
  WS02004411           JUNCTION      0.00   501.39     0  02:38           0        7.06       0.273
  WS02004412           JUNCTION      0.00   501.09     0  02:39           0        7.04       0.294
  WS02004413           JUNCTION      0.00   500.93     0  02:39           0        7.02       0.435
  WS02004405           JUNCTION      0.04   502.79     0  02:36     0.00107        7.16       0.291
  WS02006109           JUNCTION      1.23   500.28     0  02:32      0.0347        7.33       0.298
  WS02006110           JUNCTION      0.00   500.28     0  02:32           0        7.31       0.275
  WS02006111           JUNCTION      0.00   517.76     0  02:33           0        7.28       0.059
  WS02006112           JUNCTION      9.64   508.06     0  02:32      0.0263         7.3       0.405
  WS02006113           JUNCTION      0.00   500.45     0  02:32           0        7.29       0.141
  WS02006115           JUNCTION      0.00   505.32     0  02:33           0        7.27       0.285
  WS02006116           JUNCTION      0.00   503.76     0  02:34           0        7.25       0.270
  WS02006230           JUNCTION     10.28   347.66     0  02:48        0.29        6.43       0.232
  WS02006231           JUNCTION      0.00   336.62     0  02:48           0        6.15       0.154
  WS02006232           JUNCTION      0.00   336.50     0  02:48           0        6.17       0.266
  WS02006234           JUNCTION      0.00   336.09     0  02:47           0        6.18       0.132
  WS02006235           JUNCTION      0.00   335.86     0  02:47           0        6.22       0.179
  WS02006238           JUNCTION      0.00   231.76     0  02:44           0        3.97       0.200
  WS02006240           JUNCTION      0.00   230.41     0  02:43           0        3.96       0.306
  WS02006242           JUNCTION      0.00   229.74     0  02:42           0        3.97       0.369
  WS02006243           JUNCTION      0.00   228.95     0  02:40           0        3.96       0.140
  WS02006245           JUNCTION      0.00   232.33     0  02:26           0        3.97       0.217
  WS02006247           JUNCTION      0.00   234.33     0  02:26           0        3.98       0.174
  WS02006248           JUNCTION      0.00   235.62     0  02:25           0        3.98       0.104
  WS02006249           JUNCTION      0.00   237.03     0  02:25           0        3.99       0.261
  WS02006239           JUNCTION      0.00   231.17     0  02:44           0        3.97       0.301
  WS02006251           JUNCTION      0.08   238.63     0  02:23     0.00217           4       0.219
  WS02006252           JUNCTION      0.00   200.00     0  02:21           0        3.85       0.011
  WS02006253           JUNCTION      1.47    42.46     0  02:16     0.00341       0.151       2.515
  WS02006256           JUNCTION      0.00   600.00     0  02:31           0        6.44       0.049
  WS02004138           JUNCTION      0.00   380.00     0  02:00           0        8.24       0.056
  WS02004407           JUNCTION      0.00   502.78     0  02:36           0        7.11       0.107
  WS02006228           JUNCTION      0.00   499.05     0  02:32           0        7.31       0.211
  WS02006229           JUNCTION      0.00   499.06     0  02:32           0        7.32       0.175
  WS02006280           JUNCTION      0.00   217.50     0  02:17           0       0.907       0.008
  WS02006284           JUNCTION      0.10   217.48     0  02:17      0.0027       0.908       0.118
  WS02006287           JUNCTION      0.00   217.35     0  02:17           0       0.906       0.080
  WSF200               JUNCTION      0.00   500.91     0  02:40           0        6.98       0.061
  HS02004901           JUNCTION     11.93    11.93     0  02:09      0.0317      0.0318       5.839
  HS02004881           JUNCTION      4.82    41.34     0  02:16      0.0138       0.145       0.226
  HS02004876           JUNCTION      7.65    36.85     0  02:17      0.0265       0.132       0.400
  HS02004870           JUNCTION      8.49    29.37     0  02:17      0.0262       0.106       0.101
  HS02004862           JUNCTION      6.94    21.46     0  02:17      0.0318      0.0798       0.212
  HS02004856           JUNCTION      6.29    14.58     0  02:17      0.0197      0.0494       2.994
  HS02004852           JUNCTION      0.00     8.69     0  02:17           0      0.0298       0.170
  HS02004848           JUNCTION     13.82    13.82     0  02:19      0.0624      0.0624       0.070
  HS02004842           JUNCTION      0.00     5.61     0  02:29           0      0.0456      39.897
  HS02004837           JUNCTION     19.93    24.68     0  02:16       0.225       0.257       0.317
  HS02004830           JUNCTION      0.15    24.82     0  02:17     0.00423       0.248       0.500
  HS02004824           JUNCTION     15.50    40.13     0  02:20      0.0817       0.328       0.164
  HS02004817           JUNCTION      0.60    40.73     0  02:20      0.0169       0.344       5.085
  HS02004807           JUNCTION     15.97    55.26     0  02:18      0.0481       0.376       1.137
  HS02004802           JUNCTION      0.00    55.58     0  02:20           0       0.372       1.104
  HS02004799           JUNCTION     12.29   138.26     0  02:15      0.0389       0.471       0.485
  HS02004792           JUNCTION     54.98   126.25     0  02:14        0.17       0.433       0.095
  HS02004788           JUNCTION     18.33    73.51     0  02:15       0.101       0.264       0.149
  HS02004785           JUNCTION      0.15    55.59     0  02:15     0.00423       0.164       0.294
  HS02004777           JUNCTION      0.03    55.94     0  02:13    0.000846       0.165       3.244
  HS02004770           JUNCTION     46.61    57.20     0  02:11       0.135       0.166       1.906
  HS02004480           JUNCTION      0.00   162.99     0  02:15           0        0.55       0.132
  HS02004479           JUNCTION      0.00    25.27     0  02:18           0       0.091       0.808
  HS02004478           JUNCTION      0.00   217.35     0  02:17           0       0.906       0.069
  YS02001745           JUNCTION     76.78    76.78     0  02:58       0.836       0.847       0.113
  YS02001748           JUNCTION      0.04   116.47     0  05:10     0.00127       0.889       0.811
  YS02001751           JUNCTION      0.01   132.49     0  04:52     0.00031       0.876       1.785
  YS02001754           JUNCTION      0.26    98.33     0  02:54     0.00733       0.832       2.311
  YS02001762           JUNCTION      0.00   117.88     0  02:41           0       0.921       2.315
  YS02001765           JUNCTION      0.00   125.44     0  02:36           0       0.922       2.642
  YS02001767           JUNCTION      0.54   124.08     0  02:55      0.0151       0.942       3.761
  YS02001770           JUNCTION     99.01   128.10     0  02:59       0.977        1.08       2.584
  YS02001774           JUNCTION      0.00    48.59     0  06:06           0       0.222      12.527
  YS02001779           JUNCTION      0.01    49.08     0  06:06    0.000141       0.102      11.547
  YS02001882           JUNCTION      0.00     4.34     0  02:09           0     0.00532      46.081
  YS02001884           JUNCTION      0.00    12.01     0  02:06           0      0.0213      29.699
  YS02001759           JUNCTION     96.94   209.35     0  02:55       0.912        1.79       1.288
  YS02001887           JUNCTION    128.09   128.09     0  02:40        1.09         1.1       0.657
  YS02001890           JUNCTION      0.00   127.74     0  02:41           0        1.07       0.736
  YS02001898           JUNCTION      0.00   126.92     0  02:40           0        1.06       0.207
  YS02001901           JUNCTION      0.00   126.65     0  02:45           0        1.06       0.522
  YS02001904           JUNCTION      0.00   126.13     0  02:47           0        1.06       0.486
  YS02001907           JUNCTION      0.00   228.59     0  02:53           0        2.27       0.980
  YS02001910           JUNCTION      0.00   104.25     0  03:01           0        1.22       0.837
  YS02001915           JUNCTION     68.86   103.63     0  03:01       0.715        1.23       0.373
  YS02001918           JUNCTION      0.00    35.27     0  03:02           0       0.513       0.221
  YS02001619           JUNCTION     66.93    66.93     0  02:55       0.706       0.706       1.014
  YS02001629           JUNCTION      0.00    93.50     0  05:32           0       0.657       3.126
  YS02001641           JUNCTION      0.00   149.18     0  03:06           0        1.38       1.517
  YS02001644           JUNCTION     72.93   221.44     0  03:06       0.803        2.16       1.212
  YS02001652           JUNCTION      0.00   109.60     0  02:37           0        0.79       2.440
  YS02001655           JUNCTION      0.15   136.33     0  03:42     0.00434       0.841       2.026
  YS02001920           JUNCTION      2.87    35.29     0  03:02      0.0809       0.515       0.400
  YS02001923           JUNCTION      0.04    32.43     0  03:01     0.00106       0.435       0.070
  YS02001926           JUNCTION      0.05    32.45     0  03:01     0.00147       0.436       0.499
  YS02001929           JUNCTION     32.41    32.41     0  03:01       0.434       0.434       0.068
  YS02001658           JUNCTION      0.00   127.89     0  05:15           0       0.881       0.859
  YS02001661           JUNCTION      0.00    90.67     0  02:43           0       0.839       0.086
  YS02001664           JUNCTION     90.67    90.67     0  02:43       0.796       0.796       0.018
  YS02001622           JUNCTION      0.00    81.55     0  02:50           0       0.716       2.882
  YS02001633           JUNCTION     74.14   152.62     0  02:40       0.827        1.44       2.199
  YS02001649           JUNCTION      0.00   312.89     0  02:54           0        2.86       1.304
  YS02001757           JUNCTION      0.00   560.92     0  03:02           0        5.35       1.749
  YS02001895           JUNCTION      0.00   127.02     0  02:40           0        1.07       0.352
  YS02001625           JUNCTION      0.00    89.50     0  05:32           0       0.707       5.304
  YS02163301           JUNCTION      0.00    86.49     0  03:08           0       0.636       3.799
  YS02163601           JUNCTION      0.11   150.07     0  02:53      0.0031         1.4       2.164
  YS02164001           JUNCTION      0.00   149.77     0  02:51           0        1.38       1.396
  YS02001647           JUNCTION      0.00   223.41     0  02:58           0        2.12       1.101
  YSB1154              JUNCTION     13.60    13.60     0  02:14      0.0472      0.0485       3.067
  YSB6556              JUNCTION      0.00    13.56     0  02:17           0      0.0495       2.583
  YSB1174              JUNCTION     13.59    13.59     0  02:09      0.0344      0.0354       3.761
  YSB1171              JUNCTION      0.00    25.32     0  02:15           0      0.0904       7.515
  YS02006553           JUNCTION      0.00   228.67     0  02:54           0        2.26       0.635
  YS02006561           JUNCTION      0.00   338.74     0  02:51           0         3.2       0.021
  YS02006556           JUNCTION      0.00   228.75     0  02:54           0        2.27       0.459
  YS02006558           JUNCTION    108.19   335.71     0  02:51       0.991        3.23       0.140
  YS02001783           JUNCTION      0.00   335.70     0  02:51           0         3.2       0.048
  YS02001784           JUNCTION      1.06   336.77     0  02:52      0.0299        3.23       0.079
  YS02001786           JUNCTION      0.06   336.82     0  02:52     0.00159        3.23       0.077
  YS02001788           JUNCTION      0.07   336.88     0  02:52       0.002        3.23       0.044
  YS02001790           JUNCTION      0.15   337.04     0  02:53     0.00437        3.23       0.056
  YS02001791           JUNCTION      0.00   337.03     0  02:53           0        3.23       0.027
  YS02001793           JUNCTION      0.00   337.03     0  02:53           0        3.23       0.012
  WS02004139           JUNCTION      0.32   380.32     0  02:00     0.00905        8.24       0.462
  WSC                  OUTFALL       0.00   905.09     0  02:44           0        15.7       0.000
  3                    OUTFALL       0.00   498.50     0  02:37           0        4.16       0.000
  4                    OUTFALL       0.00     0.00     0  00:00           0           0       0.000 ltr
  5                    OUTFALL       0.00     0.00     0  00:00           0           0       0.000 ltr
  JK-storage           STORAGE       0.00   337.03     0  02:53           0        3.38     -47.507
  CC-storage           STORAGE       0.00   561.35     0  02:56           0        5.25       0.571
  XR-storage           STORAGE     324.79   324.79     0  02:50        7.04        7.64      -7.193
  
  
  **********************
  Node Surcharge Summary
  **********************
  
  Surcharging occurs when water rises above the top of the highest conduit.
  ---------------------------------------------------------------------
                                               Max. Height   Min. Depth
                                   Hours       Above Crown    Below Rim
  Node                 Type      Surcharged         Meters       Meters
  ---------------------------------------------------------------------
  WS02006109           JUNCTION        0.93          0.109        1.711
  WS02006112           JUNCTION        0.22          0.012        1.668
  WS02006232           JUNCTION        0.66          0.054        1.426
  WS02006235           JUNCTION        0.07          0.001        1.289
  WS02006238           JUNCTION        0.26          0.016        1.414
  WS02006228           JUNCTION        0.90          0.128        2.072
  YS02001754           JUNCTION        0.70          0.139        1.011
  YS02001762           JUNCTION        5.15          0.522        0.628
  YS02001765           JUNCTION        5.00          0.542        0.558
  YS02001767           JUNCTION        4.36          0.584        0.446
  YS02001770           JUNCTION        3.78          0.653        0.267
  YS02001774           JUNCTION        5.11          0.793        0.257
  YS02001779           JUNCTION        0.34          0.554        0.126
  YS02001759           JUNCTION        5.22          0.468        0.742
  YS02001641           JUNCTION        5.08          0.318        0.782
  YS02001644           JUNCTION        5.08          0.320        0.600
  YS02001652           JUNCTION        1.91          0.132        0.998
  YS02001633           JUNCTION        4.83          0.266        0.794
  YS02001649           JUNCTION        5.17          0.350        0.700
  YS02001757           JUNCTION        5.36          0.504        0.706
  YS02001625           JUNCTION        2.34          0.121        0.659
  YS02163301           JUNCTION        3.94          0.207        0.823
  YS02163601           JUNCTION        5.17          0.352        0.728
  YS02164001           JUNCTION        5.01          0.292        0.808
  YS02001647           JUNCTION        2.26          0.149        0.751
  
  
  *********************
  Node Flooding Summary
  *********************
  
  No nodes were flooded.
  
  
  **********************
  Storage Volume Summary
  **********************
  
  --------------------------------------------------------------------------------------------------
                         Average     Avg  Evap Exfil       Maximum     Max    Time of Max    Maximum
                          Volume    Pcnt  Pcnt  Pcnt        Volume    Pcnt     Occurrence    Outflow
  Storage Unit           1000 m3    Full  Loss  Loss       1000 m3    Full    days hr:min        LPS
  --------------------------------------------------------------------------------------------------
  JK-storage               0.002       1     0     0         0.151      52       0  00:00     600.00
  CC-storage               1.229       8     0     0         1.844      12       0  05:24     200.00
  XR-storage               0.151      16     0     0         0.671      72       0  01:50     380.00
  
  
  ***********************
  Outfall Loading Summary
  ***********************
  
  -----------------------------------------------------------
                         Flow       Avg       Max       Total
                         Freq      Flow      Flow      Volume
  Outfall Node           Pcnt       LPS       LPS    10^6 ltr
  -----------------------------------------------------------
  WSC                   99.99    660.21    905.09      15.650
  3                     95.05    215.41    498.50       4.156
  4                      0.00      0.00      0.00       0.000
  5                      0.00      0.00      0.00       0.000
  -----------------------------------------------------------
  System                48.76    875.62   1401.81      19.806
  
  
  ********************
  Link Flow Summary
  ********************
  
  -----------------------------------------------------------------------------
                                 Maximum  Time of Max   Maximum    Max/    Max/
                                  |Flow|   Occurrence   |Veloc|    Full    Full
  Link                 Type          LPS  days hr:min     m/sec    Flow   Depth
  -----------------------------------------------------------------------------
  WS02003066WSF200     CONDUIT    500.91     0  02:40      2.74    0.08    0.22
  WS02006287WS02006284 CONDUIT    217.39     0  02:17      1.65    0.10    0.22
  WS02006284WS02006280 CONDUIT    217.50     0  02:17      1.89    0.09    0.20
  WS02006280WS02006229 CONDUIT    217.50     0  02:17      3.04    0.05    0.15
  WS02006229WS02006228 CONDUIT    499.05     0  02:32      0.99    1.65    1.00
  WS02006256WS02006235 CONDUIT    166.25     0  00:01      2.58    1.76    1.00
  WS02006253WS02006251 CONDUIT     42.62     0  02:17      0.50    0.13    0.66
  WS02006252WS02006251 CONDUIT    200.38     0  02:21      1.97    0.74    0.76
  WS02006251WS02006249 CONDUIT    237.03     0  02:25      0.98    0.68    0.66
  WS02006249WS02006248 CONDUIT    235.62     0  02:25      1.05    1.29    0.65
  WS02006248WS02006247 CONDUIT    234.33     0  02:26      1.02    0.51    0.69
  WS02006247WS02006245 CONDUIT    232.33     0  02:26      0.98    1.84    0.73
  WS02006245WS02006243 CONDUIT    228.95     0  02:40      1.01    0.68    0.75
  WS02006243WS02006242 CONDUIT    229.74     0  02:42      0.82    0.49    0.86
  WS02006242WS02006240 CONDUIT    230.41     0  02:43      0.69    0.92    0.93
  WS02006240WS02006239 CONDUIT    231.17     0  02:44      0.68    0.73    0.92
  WS02006239WS02006238 CONDUIT    231.76     0  02:44      0.67    0.74    1.00
  WS02006238WS02006235 CONDUIT    231.90     0  02:44      1.25    0.52    1.00
  WS02006235WS02006234 CONDUIT    336.09     0  02:47      0.94    3.55    0.97
  WS02006234WS02006232 CONDUIT    336.50     0  02:48      1.13    0.68    0.99
  WS02006232WS02006231 CONDUIT    336.62     0  02:48      0.94    0.71    0.94
  WS02006231WS02006230 CONDUIT    337.38     0  02:48      1.29    5.12    0.86
  WS02006230WS02006229 CONDUIT    348.69     0  02:48      0.91    7.76    1.00
  WS02006228WS02006109 CONDUIT    499.05     0  02:32      0.99    2.18    1.00
  WS02006116WS02004401 CONDUIT    503.13     0  02:34      0.74    0.69    0.81
  WS02006115WS02006116 CONDUIT    503.76     0  02:34      0.83    0.65    0.73
  WS02006113WS02006111 CONDUIT    517.76     0  02:33      2.40    0.62    0.44
  WS02006112WS02006115 CONDUIT    505.32     0  02:33      0.71    0.30    0.86
  WS02006111WS02006112 CONDUIT    502.90     0  02:33      1.41    0.24    0.67
  WS02006110WS02006113 CONDUIT    500.45     0  02:32      1.20    0.46    0.77
  WS02006109WS02006110 CONDUIT    500.28     0  02:32      1.00    0.96    0.99
  WS02004411WS02004412 CONDUIT    501.09     0  02:39      0.89    0.71    0.67
  WS02004401WS02004402 CONDUIT    502.87     0  02:35      0.77    0.60    0.84
  WS02004413WS02003067 CONDUIT    500.88     0  02:40      1.07    0.21    0.58
  WS02004412WS02004413 CONDUIT    500.93     0  02:39      0.78    0.34    0.76
  WS02004410WS02004411 CONDUIT    501.39     0  02:38      0.91    0.68    0.66
  WS02004409WS02004410 CONDUIT    501.93     0  02:37      0.94    0.65    0.65
  WS02004407WS02004409 CONDUIT    502.76     0  02:37      1.43    0.18    0.46
  WS02004406WS02004407 CONDUIT    502.78     0  02:36      1.00    0.22    0.61
  WS02004405WS02004406 CONDUIT    502.79     0  02:36      0.66    0.99    0.94
  WS02004404WS02004405 CONDUIT    502.76     0  02:36      0.84    4.93    0.94
  WS02004403WS02004404 CONDUIT    502.62     0  02:36      0.74    0.36    0.90
  WS02004402WS02004403 CONDUIT    502.68     0  02:35      0.75    0.72    0.86
  WS02004139WS02001211 CONDUIT    380.59     0  03:00      0.69    0.48    0.59
  WS02004138WS02004139 CONDUIT    380.00     0  02:00      2.94    0.08    0.44
  WS02003067WS02003066 CONDUIT    500.90     0  02:40      1.16    0.16    0.41
  WS02001213WS02003059 CONDUIT    388.98     0  02:58      0.68    0.64    0.77
  WS02001212WS02001213 CONDUIT    388.52     0  02:59      1.32    0.60    0.47
  WS02001211WS02001212 CONDUIT    388.23     0  02:59      0.78    0.30    0.65
  WS02003072WS02003073 CONDUIT    903.24     0  02:43      1.70    1.95    0.48
  WS02003069WS02003072 CONDUIT    903.24     0  02:43      1.60    0.43    0.50
  WS02003060WS02003069 CONDUIT    902.93     0  02:42      1.85    0.35    0.45
  WS02003059WS02003060 CONDUIT    389.59     0  02:58      0.93    0.25    0.65
  HS02004901HS02004770 CONDUIT     10.98     0  02:14      0.05    0.04    0.33
  HS02004876HS02004881 CONDUIT     36.93     0  02:17      0.59    0.39    0.09
  HS02004870HS02004876 CONDUIT     29.35     0  02:17      0.41    0.02    0.10
  HS02004842HS02004848 CONDUIT      5.61     0  02:29      0.03    0.00    0.28
  HS02004837HS02004842 CONDUIT      5.81     0  02:30      0.41    0.00    0.29
  HS02004830HS02004837 CONDUIT     24.67     0  02:17      0.45    0.02    0.08
  HS02004824HS02004830 CONDUIT     24.81     0  02:17      0.49    0.03    0.07
  HS02004817HS02004824 CONDUIT     40.13     0  02:20      0.17    0.02    0.40
  HS02004770HS02004777 CONDUIT     55.91     0  02:13      0.24    0.10    0.34
  HS02004799HS02004480 CONDUIT    138.06     0  02:15      0.61    0.17    0.32
  HS02004792HS02004799 CONDUIT    126.18     0  02:15      0.70    0.08    0.26
  HS02004788HS02004792 CONDUIT     73.44     0  02:16      0.85    0.05    0.12
  HS02004785HS02004788 CONDUIT     55.48     0  02:16      0.53    0.42    0.15
  HS02004777HS02004785 CONDUIT     55.44     0  02:15      0.29    0.07    0.28
  HS02004480HS02004478 CONDUIT    162.91     0  02:16      0.99    0.69    0.24
  HS02004479HS02004480 CONDUIT     25.53     0  02:18      0.16    0.02    0.31
  HS02004862HS02004870 CONDUIT     21.42     0  02:18      0.48    0.02    0.06
  HS02004848HS02004852 CONDUIT      8.69     0  02:17      0.32    0.01    0.04
  HS02004856HS02004862 CONDUIT     14.54     0  02:17      0.35    0.01    0.06
  HS02004852HS02004856 CONDUIT      8.65     0  02:19      0.13    0.01    0.09
  HS02004802HS02004478 CONDUIT     56.01     0  02:21      0.31    0.05    0.26
  HS02004478WS02006287 CONDUIT    217.35     0  02:17      1.35    0.06    0.18
  HS02004817HS02004807 CONDUIT     41.32     0  02:22      0.11    0.02    0.52
  HS02004807HS02004802 CONDUIT     55.58     0  02:20      0.26    0.11    0.31
  YS02001759YS02001757 CONDUIT    209.92     0  02:55      0.27    0.15    1.00
  YS02001762YS02001759 CONDUIT    113.35     0  02:55      0.18    0.13    1.00
  YS02001765YS02001762 CONDUIT    117.88     0  02:41      0.23    0.11    1.00
  YS02001770YS02001767 CONDUIT    123.54     0  02:55      0.31    0.49    1.00
  YS02001774YS02001770 CONDUIT     48.59     0  06:06      0.14    0.03    1.00
  YS02001779YS02001774 CONDUIT     49.08     0  06:06      0.07    0.02    1.00
  YS02001649YS02001757 CONDUIT    312.83     0  02:54      0.40    0.19    1.00
  YS02001767YS02001765 CONDUIT    125.44     0  02:36      0.26    0.16    1.00
  YS02006561YS02001783 CONDUIT    335.70     0  02:51      1.82    0.17    0.39
  YS02001783YS02001784 CONDUIT    335.71     0  02:52      1.26    0.46    0.52
  YS02001784YS02001785 CONDUIT    336.76     0  02:52      1.34    0.78    0.50
  YS02001788YS02001790 CONDUIT    336.88     0  02:53      1.91    0.25    0.38
  YS02001790YS02001791 CONDUIT    337.03     0  02:53      2.21    0.37    0.34
  YS02001791YS02001793 CONDUIT    337.03     0  02:53      4.04    0.14    0.22
  YS02001910YS02001907 CONDUIT    104.49     0  03:01      0.49    0.06    0.75
  YS02001786YS02001788 CONDUIT    336.81     0  02:52      1.78    0.65    0.40
  YS02001915YS02001910 CONDUIT    104.25     0  03:01      0.45    0.05    0.54
  YS02001918YS02001915 CONDUIT     35.26     0  03:03      0.44    0.02    0.27
  YS02001923YS02001920 CONDUIT     32.42     0  03:02      0.46    0.01    0.14
  YS02001926YS02001923 CONDUIT     32.39     0  03:01      0.50    0.05    0.14
  YS02001929YS02001926 CONDUIT     32.39     0  03:01      0.53    0.02    0.13
  YS02001920YS02001918 CONDUIT     35.27     0  03:02      0.47    0.03    0.15
  YS02001629YS02163301 CONDUIT     86.49     0  03:08      0.12    0.11    1.00
  YS02001619YS02001622 CONDUIT     81.55     0  02:50      0.66    0.12    0.78
  YS02001622YS02001625 CONDUIT     89.50     0  05:32      0.26    0.05    0.89
  YS02001625YS02001629 CONDUIT     93.50     0  05:32      0.26    0.04    0.89
  YS02163301YS02001633 CONDUIT     81.39     0  02:40      0.11    0.08    1.00
  YS02163601YS02164001 CONDUIT    149.77     0  02:51      0.19    0.13    1.00
  YS02164001YS02001641 CONDUIT    149.18     0  03:06      0.19    0.20    1.00
  YS02001641YS02001644 CONDUIT    151.44     0  03:06      0.19    0.49    1.00
  YS02001647YS02001649 CONDUIT    230.55     0  02:53      0.30    0.12    1.00
  YS02006553YS02006556 CONDUIT    228.75     0  02:54      0.33    0.20    0.83
  YS02006556YS02006558 CONDUIT    228.78     0  02:54      0.32    0.18    0.86
  YSB6556YSB1171       CONDUIT     13.82     0  02:18      0.06    0.01    0.58
  YS02001907YS02006553 CONDUIT    228.67     0  02:54      0.27    0.27    0.95
  YS02006558YS02006561 CONDUIT    338.74     0  02:51      2.35    0.75    0.51
  YS02001633YS02163601 CONDUIT    149.96     0  02:53      0.19    0.16    1.00
  YS02001644YS02001647 CONDUIT    223.41     0  02:58      0.29    0.13    1.00
  YS02001745YS02001748 CONDUIT    100.45     0  05:12      1.42    0.04    0.36
  YS02001748YS02001751 CONDUIT    132.48     0  04:52      1.11    0.07    0.71
  YS02001751YS02001754 CONDUIT     98.07     0  02:54      0.98    0.05    0.92
  YS02001754YS02001757 CONDUIT    102.79     0  03:14      0.33    0.04    1.00
  YS02001882YS02001884 CONDUIT      4.34     0  02:09      0.06    0.00    0.48
  YS02001884YS02001887 CONDUIT     12.01     0  02:06      0.06    0.02    0.57
  YS02001890YS02001895 CONDUIT    127.02     0  02:40      0.29    0.06    0.54
  YS02001895YS02001898 CONDUIT    126.92     0  02:40      0.49    0.22    0.41
  YS02001898YS02001901 CONDUIT    126.65     0  02:45      0.34    0.08    0.48
  YS02001901YS02001904 CONDUIT    126.13     0  02:47      0.30    0.20    0.54
  YS02001904YS02001907 CONDUIT    126.20     0  02:47      0.22    0.04    0.70
  YS02001887YS02001890 CONDUIT    127.74     0  02:41      0.25    0.22    0.63
  YS02001652YS02001649 CONDUIT    132.53     0  02:38      0.33    0.07    1.00
  YS02001655YS02001652 CONDUIT    109.60     0  02:37      1.05    0.05    0.93
  YS02001658YS02001655 CONDUIT    136.17     0  03:42      1.28    0.06    0.70
  YS02001661YS02001658 CONDUIT    123.88     0  04:39      1.47    0.05    0.38
  YS02001664YS02001661 CONDUIT     90.67     0  02:43      1.14    0.03    0.18
  YSB1154YSB6556       CONDUIT     13.56     0  02:17      0.19    0.02    0.47
  YSB1174YSB1171       CONDUIT     12.63     0  02:10      0.06    0.02    0.59
  YSB1171HS02004479    CONDUIT     25.27     0  02:18      0.54    0.02    0.46
  HS02004881HS02006253 CONDUIT     41.33     0  02:17      1.70    0.01    0.11
  YS02001793JiankangQianchi CONDUIT    337.03     0  02:53     13.47    0.03    0.50
  YS02001757CaochengTiaoxuchi CONDUIT    561.35     0  02:56      1.20    0.25    0.83
  WSF200WS02003060     CONDUIT    500.98     0  02:40      1.54    0.11    0.33
  1                    CONDUIT    905.09     0  02:44      3.24    0.32    0.39
  2                    CONDUIT      0.00     0  00:00      0.00    0.00    0.00
  3                    CONDUIT    498.50     0  02:37      9.78    0.79    0.68
  4                    CONDUIT      0.00     0  00:00      0.00    0.00    0.00
  CC-Pump-1            PUMP       200.00     0  04:40              1.00
  CC-Pump-2            PUMP       200.00     0  02:21              1.00
  JK-Pump-1            PUMP       300.00     0  00:00              1.00
  JK-Pump-2            PUMP       300.00     0  02:31              1.00
  XR-Pump-1            PUMP        95.00     0  00:00              1.00
  XR-Pump-2            PUMP        95.00     0  02:00              1.00
  XR-Pump-3            PUMP        95.00     0  00:00              1.00
  XR-Pump-4            PUMP        95.00     0  02:00              1.00
  
  
  ***************************
  Flow Classification Summary
  ***************************
  
  -------------------------------------------------------------------------------------
                      Adjusted    ---------- Fraction of Time in Flow Class ---------- 
                       /Actual         Up    Down  Sub   Sup   Up    Down  Norm  Inlet 
  Conduit               Length    Dry  Dry   Dry   Crit  Crit  Crit  Crit  Ltd   Ctrl  
  -------------------------------------------------------------------------------------
  WS02003066WSF200        1.00   0.06  0.00  0.00  0.00  0.94  0.00  0.00  0.72  0.00
  WS02006287WS02006284    1.00   0.04  0.01  0.00  0.67  0.28  0.00  0.00  0.77  0.00
  WS02006284WS02006280    1.00   0.04  0.00  0.00  0.00  0.00  0.00  0.96  0.00  0.00
  WS02006280WS02006229    1.00   0.04  0.00  0.00  0.00  0.00  0.00  0.96  0.00  0.00
  WS02006229WS02006228    1.00   0.00  0.00  0.00  0.99  0.00  0.00  0.01  0.00  0.00
  WS02006256WS02006235    1.00   0.00  0.00  0.00  1.00  0.00  0.00  0.00  0.00  0.00
  WS02006253WS02006251    1.00   0.03  0.01  0.00  0.96  0.00  0.00  0.00  0.00  0.00
  WS02006252WS02006251    1.00   0.08  0.00  0.00  0.00  0.00  0.92  0.00  0.00  0.00
  WS02006251WS02006249    1.00   0.00  0.00  0.00  1.00  0.00  0.00  0.00  0.26  0.00
  WS02006249WS02006248    1.00   0.00  0.02  0.00  0.91  0.00  0.07  0.00  0.00  0.00
  WS02006248WS02006247    1.00   0.02  0.00  0.00  0.98  0.00  0.00  0.00  0.17  0.00
  WS02006247WS02006245    1.00   0.02  0.00  0.00  0.98  0.00  0.00  0.00  0.00  0.00
  WS02006245WS02006243    1.00   0.01  0.00  0.00  0.94  0.00  0.00  0.04  0.01  0.00
  WS02006243WS02006242    1.00   0.01  0.00  0.00  0.99  0.00  0.00  0.00  0.26  0.00
  WS02006242WS02006240    1.00   0.00  0.00  0.00  1.00  0.00  0.00  0.00  0.00  0.00
  WS02006240WS02006239    1.00   0.00  0.00  0.00  0.96  0.00  0.00  0.04  0.01  0.00
  WS02006239WS02006238    1.00   0.00  0.00  0.00  1.00  0.00  0.00  0.00  0.00  0.00
  WS02006238WS02006235    1.00   0.00  0.00  0.00  1.00  0.00  0.00  0.00  0.00  0.00
  WS02006235WS02006234    1.00   0.00  0.00  0.00  0.96  0.00  0.04  0.00  0.00  0.00
  WS02006234WS02006232    1.00   0.00  0.00  0.00  1.00  0.00  0.00  0.00  0.16  0.00
  WS02006232WS02006231    1.00   0.00  0.00  0.00  0.99  0.00  0.00  0.00  0.00  0.00
  WS02006231WS02006230    1.00   0.00  0.00  0.00  0.41  0.00  0.59  0.00  0.00  0.00
  WS02006230WS02006229    1.00   0.00  0.00  0.00  0.99  0.00  0.00  0.01  0.01  0.00
  WS02006228WS02006109    1.00   0.00  0.00  0.00  1.00  0.00  0.00  0.00  0.00  0.00
  WS02006116WS02004401    1.00   0.02  0.00  0.00  0.98  0.00  0.00  0.00  0.00  0.00
  WS02006115WS02006116    1.00   0.02  0.00  0.00  0.97  0.00  0.00  0.01  0.00  0.00
  WS02006113WS02006111    1.00   0.02  0.00  0.00  0.00  0.98  0.00  0.00  0.10  0.00
  WS02006112WS02006115    1.00   0.02  0.00  0.00  0.97  0.00  0.00  0.00  0.00  0.00
  WS02006111WS02006112    1.00   0.02  0.00  0.00  0.98  0.00  0.00  0.00  0.98  0.00
  WS02006110WS02006113    1.00   0.01  0.01  0.00  0.98  0.00  0.00  0.00  0.00  0.00
  WS02006109WS02006110    1.00   0.00  0.01  0.00  0.98  0.00  0.01  0.00  0.00  0.00
  WS02004411WS02004412    1.00   0.04  0.00  0.00  0.96  0.00  0.00  0.00  0.00  0.00
  WS02004401WS02004402    1.00   0.02  0.00  0.00  0.98  0.00  0.00  0.00  0.00  0.00
  WS02004413WS02003067    1.00   0.04  0.01  0.00  0.00  0.00  0.95  0.00  0.00  0.00
  WS02004412WS02004413    1.00   0.04  0.00  0.00  0.96  0.00  0.00  0.00  0.03  0.00
  WS02004410WS02004411    1.00   0.04  0.00  0.00  0.96  0.00  0.00  0.00  0.04  0.00
  WS02004409WS02004410    1.00   0.04  0.00  0.00  0.96  0.00  0.00  0.00  0.04  0.00
  WS02004407WS02004409    1.00   0.04  0.00  0.00  0.96  0.00  0.00  0.00  0.89  0.00
  WS02004406WS02004407    1.00   0.00  0.04  0.00  0.96  0.00  0.00  0.00  0.00  0.00
  WS02004405WS02004406    1.00   0.00  0.00  0.00  1.00  0.00  0.00  0.00  0.00  0.00
  WS02004404WS02004405    1.00   0.00  0.00  0.00  1.00  0.00  0.00  0.00  0.00  0.00
  WS02004403WS02004404    1.00   0.00  0.03  0.00  0.97  0.00  0.00  0.00  0.01  0.00
  WS02004402WS02004403    1.00   0.03  0.00  0.00  0.97  0.00  0.00  0.00  0.00  0.00
  WS02004139WS02001211    1.00   0.00  0.00  0.00  1.00  0.00  0.00  0.00  0.00  0.00
  WS02004138WS02004139    1.00   0.00  0.00  0.00  0.99  0.01  0.00  0.00  1.00  0.00
  WS02003067WS02003066    1.00   0.05  0.00  0.00  0.94  0.00  0.00  0.00  0.00  0.00
  WS02001213WS02003059    1.00   0.00  0.00  0.00  0.99  0.00  0.00  0.00  0.00  0.00
  WS02001212WS02001213    1.00   0.00  0.00  0.00  0.93  0.00  0.06  0.00  0.00  0.00
  WS02001211WS02001212    1.00   0.00  0.00  0.00  1.00  0.00  0.00  0.00  0.00  0.00
  WS02003072WS02003073    1.00   0.00  0.00  0.00  0.00  0.00  0.00  1.00  0.00  0.00
  WS02003069WS02003072    1.00   0.00  0.00  0.00  0.99  0.01  0.00  0.00  0.23  0.00
  WS02003060WS02003069    1.00   0.00  0.00  0.00  0.99  0.01  0.00  0.00  0.20  0.00
  WS02003059WS02003060    1.00   0.00  0.00  0.00  1.00  0.00  0.00  0.00  0.01  0.00
  HS02004901HS02004770    1.00   0.04  0.00  0.00  0.96  0.00  0.00  0.00  0.02  0.00
  HS02004876HS02004881    1.00   0.02  0.00  0.00  0.98  0.00  0.00  0.00  0.00  0.00
  HS02004870HS02004876    1.00   0.01  0.00  0.00  0.99  0.00  0.00  0.00  0.95  0.00
  HS02004842HS02004848    1.00   0.00  0.04  0.00  0.96  0.00  0.00  0.00  0.69  0.00
  HS02004837HS02004842    1.00   0.00  0.00  0.00  0.99  0.01  0.00  0.00  0.11  0.00
  HS02004830HS02004837    1.00   0.00  0.00  0.00  1.00  0.00  0.00  0.00  0.99  0.00
  HS02004824HS02004830    1.00   0.00  0.00  0.00  1.00  0.00  0.00  0.00  0.00  0.00
  HS02004817HS02004824    1.00   0.00  0.00  0.00  1.00  0.00  0.00  0.00  1.00  0.00
  HS02004770HS02004777    1.00   0.00  0.04  0.00  0.96  0.00  0.00  0.00  0.07  0.00
  HS02004799HS02004480    1.00   0.00  0.02  0.00  0.95  0.00  0.03  0.00  0.00  0.00
  HS02004792HS02004799    1.00   0.00  0.00  0.00  0.99  0.01  0.00  0.00  0.98  0.00
  HS02004788HS02004792    1.00   0.00  0.00  0.00  0.99  0.01  0.00  0.00  0.98  0.00
  HS02004785HS02004788    1.00   0.00  0.00  0.00  1.00  0.00  0.00  0.00  0.00  0.00
  HS02004777HS02004785    1.00   0.00  0.00  0.00  1.00  0.00  0.00  0.00  0.20  0.00
  HS02004480HS02004478    1.00   0.05  0.00  0.00  0.71  0.00  0.00  0.24  0.00  0.00
  HS02004479HS02004480    1.00   0.03  0.00  0.00  0.97  0.00  0.00  0.00  0.16  0.00
  HS02004862HS02004870    1.00   0.00  0.00  0.00  1.00  0.00  0.00  0.00  0.06  0.00
  HS02004848HS02004852    1.00   0.04  0.00  0.00  0.96  0.00  0.00  0.00  0.71  0.00
  HS02004856HS02004862    1.00   0.00  0.06  0.00  0.94  0.00  0.00  0.00  0.74  0.00
  HS02004852HS02004856    1.00   0.04  0.01  0.00  0.95  0.00  0.00  0.00  0.83  0.00
  HS02004802HS02004478    1.00   0.04  0.00  0.00  0.95  0.00  0.00  0.00  0.01  0.00
  HS02004478WS02006287    1.00   0.05  0.00  0.00  0.86  0.08  0.00  0.00  0.77  0.00
  HS02004817HS02004807    1.00   0.00  0.04  0.00  0.96  0.00  0.00  0.00  0.00  0.00
  HS02004807HS02004802    1.00   0.04  0.00  0.00  0.95  0.00  0.00  0.00  0.01  0.00
  YS02001759YS02001757    1.00   0.00  0.00  0.00  1.00  0.00  0.00  0.00  0.17  0.00
  YS02001762YS02001759    1.00   0.00  0.00  0.00  1.00  0.00  0.00  0.00  0.04  0.00
  YS02001765YS02001762    1.00   0.00  0.00  0.00  1.00  0.00  0.00  0.00  0.22  0.00
  YS02001770YS02001767    1.00   0.00  0.00  0.00  1.00  0.00  0.00  0.00  0.00  0.00
  YS02001774YS02001770    1.00   0.00  0.05  0.00  0.95  0.00  0.00  0.00  0.07  0.00
  YS02001779YS02001774    1.00   0.00  0.00  0.00  1.00  0.00  0.00  0.00  0.26  0.00
  YS02001649YS02001757    1.00   0.00  0.00  0.00  1.00  0.00  0.00  0.00  0.19  0.00
  YS02001767YS02001765    1.00   0.00  0.00  0.00  1.00  0.00  0.00  0.00  0.01  0.00
  YS02006561YS02001783    1.00   0.07  0.00  0.00  0.00  0.93  0.00  0.00  0.73  0.00
  YS02001783YS02001784    1.00   0.00  0.07  0.00  0.93  0.00  0.00  0.00  0.00  0.00
  YS02001784YS02001785    1.00   0.00  0.00  0.00  1.00  0.00  0.00  0.00  0.25  0.00
  YS02001788YS02001790    1.00   0.00  0.00  0.00  0.07  0.93  0.00  0.00  0.76  0.00
  YS02001790YS02001791    1.00   0.00  0.00  0.00  0.02  0.98  0.00  0.00  0.55  0.00
  YS02001791YS02001793    1.00   0.00  0.00  0.00  0.00  1.00  0.00  0.00  0.00  0.00
  YS02001910YS02001907    1.00   0.00  0.00  0.00  0.97  0.00  0.00  0.02  0.13  0.00
  YS02001786YS02001788    1.00   0.00  0.00  0.00  0.07  0.93  0.00  0.00  0.00  0.00
  YS02001915YS02001910    1.00   0.00  0.00  0.00  0.99  0.01  0.00  0.00  0.24  0.00
  YS02001918YS02001915    1.00   0.00  0.01  0.00  0.98  0.01  0.00  0.00  0.82  0.00
  YS02001923YS02001920    1.00   0.00  0.00  0.00  1.00  0.00  0.00  0.00  1.00  0.00
  YS02001926YS02001923    1.00   0.00  0.03  0.00  0.00  0.00  0.97  0.00  0.00  0.00
  YS02001929YS02001926    1.00   0.00  0.04  0.00  0.96  0.00  0.00  0.00  0.87  0.00
  YS02001920YS02001918    1.00   0.00  0.01  0.00  0.99  0.00  0.00  0.00  0.00  0.00
  YS02001629YS02163301    1.00   0.06  0.00  0.00  0.94  0.00  0.00  0.00  0.00  0.00
  YS02001619YS02001622    1.00   0.04  0.00  0.00  0.96  0.00  0.00  0.00  0.00  0.00
  YS02001622YS02001625    1.00   0.04  0.00  0.00  0.96  0.00  0.00  0.00  0.13  0.00
  YS02001625YS02001629    1.00   0.04  0.02  0.00  0.92  0.00  0.02  0.00  0.00  0.00
  YS02163301YS02001633    1.00   0.00  0.06  0.00  0.94  0.00  0.00  0.00  0.00  0.00
  YS02163601YS02164001    1.00   0.00  0.03  0.00  0.97  0.00  0.00  0.00  0.00  0.00
  YS02164001YS02001641    1.00   0.01  0.03  0.00  0.97  0.00  0.00  0.00  0.07  0.00
  YS02001641YS02001644    1.00   0.00  0.01  0.00  0.99  0.00  0.00  0.00  0.00  0.00
  YS02001647YS02001649    1.00   0.00  0.06  0.00  0.94  0.00  0.00  0.00  0.01  0.00
  YS02006553YS02006556    1.00   0.01  0.00  0.00  0.99  0.00  0.00  0.00  0.03  0.00
  YS02006556YS02006558    1.00   0.00  0.00  0.00  1.00  0.00  0.00  0.00  0.00  0.00
  YSB6556YSB1171          1.00   0.03  0.01  0.00  0.96  0.00  0.00  0.00  0.00  0.00
  YS02001907YS02006553    1.00   0.00  0.02  0.00  0.98  0.00  0.00  0.00  0.00  0.00
  YS02006558YS02006561    1.00   0.07  0.00  0.00  0.00  0.93  0.00  0.00  0.70  0.00
  YS02001633YS02163601    1.00   0.00  0.01  0.00  0.99  0.00  0.00  0.00  0.19  0.00
  YS02001644YS02001647    1.00   0.00  0.06  0.00  0.94  0.00  0.00  0.00  0.00  0.00
  YS02001745YS02001748    1.00   0.00  0.00  0.00  0.86  0.02  0.00  0.12  0.36  0.00
  YS02001748YS02001751    1.00   0.00  0.00  0.00  0.97  0.03  0.00  0.00  0.24  0.00
  YS02001751YS02001754    1.00   0.00  0.00  0.00  0.93  0.00  0.00  0.07  0.02  0.00
  YS02001754YS02001757    1.00   0.00  0.00  0.00  0.99  0.01  0.00  0.00  0.26  0.00
  YS02001882YS02001884    1.00   0.05  0.00  0.00  0.94  0.00  0.00  0.00  0.00  0.00
  YS02001884YS02001887    1.00   0.03  0.01  0.00  0.96  0.00  0.00  0.00  0.00  0.00
  YS02001890YS02001895    1.00   0.00  0.06  0.00  0.94  0.00  0.00  0.00  0.00  0.00
  YS02001895YS02001898    1.00   0.06  0.00  0.00  0.93  0.00  0.01  0.00  0.00  0.00
  YS02001898YS02001901    1.00   0.06  0.00  0.00  0.94  0.00  0.00  0.00  0.02  0.00
  YS02001901YS02001904    1.00   0.06  0.00  0.00  0.94  0.00  0.00  0.00  0.00  0.00
  YS02001904YS02001907    1.00   0.00  0.05  0.00  0.94  0.00  0.00  0.00  0.00  0.00
  YS02001887YS02001890    1.00   0.00  0.00  0.00  0.97  0.00  0.02  0.00  0.00  0.00
  YS02001652YS02001649    1.00   0.00  0.00  0.00  1.00  0.00  0.00  0.00  0.25  0.00
  YS02001655YS02001652    1.00   0.00  0.00  0.00  0.93  0.00  0.00  0.07  0.02  0.00
  YS02001658YS02001655    1.00   0.00  0.05  0.00  0.92  0.03  0.00  0.00  0.11  0.00
  YS02001661YS02001658    1.00   0.05  0.00  0.00  0.86  0.09  0.00  0.00  0.31  0.00
  YS02001664YS02001661    1.00   0.04  0.00  0.00  0.72  0.24  0.00  0.00  0.86  0.00
  YSB1154YSB6556          1.00   0.04  0.00  0.00  0.96  0.00  0.00  0.00  0.02  0.00
  YSB1174YSB1171          1.00   0.03  0.01  0.00  0.96  0.00  0.00  0.00  0.00  0.00
  YSB1171HS02004479       1.00   0.03  0.00  0.00  0.97  0.00  0.00  0.00  0.13  0.00
  HS02004881HS02006253    1.00   0.03  0.00  0.00  0.87  0.01  0.00  0.09  0.67  0.00
  YS02001793JiankangQianchi    1.00   0.00  0.00  0.00  0.02  0.98  0.00  0.00  0.02  0.00
  YS02001757CaochengTiaoxuchi    1.00   0.00  0.08  0.00  0.92  0.00  0.00  0.00  0.00  0.00
  WSF200WS02003060        1.00   0.00  0.06  0.00  0.94  0.00  0.00  0.00  0.34  0.00
  1                       1.00   0.00  0.00  0.00  0.00  1.00  0.00  0.00  0.19  0.00
  2                       1.00   1.00  0.00  0.00  0.00  0.00  0.00  0.00  0.00  0.00
  3                       1.00   0.05  0.00  0.00  0.00  0.95  0.00  0.00  0.26  0.00
  4                       1.00   1.00  0.00  0.00  0.00  0.00  0.00  0.00  0.00  0.00
  
  
  *************************
  Conduit Surcharge Summary
  *************************
  
  ----------------------------------------------------------------------------
                                                           Hours        Hours 
                         --------- Hours Full --------   Above Full   Capacity
  Conduit                Both Ends  Upstream  Dnstream   Normal Flow   Limited
  ----------------------------------------------------------------------------
  WS02006229WS02006228        0.90      0.96      0.90      5.30         0.90
  WS02006256WS02006235        5.74      5.74      6.55      5.82         0.01
  WS02006249WS02006248        0.01      0.01      0.01      5.18         0.01
  WS02006247WS02006245        0.01      0.01      0.01      5.29         0.01
  WS02006239WS02006238        0.01      0.01      0.26      0.01         0.01
  WS02006238WS02006235        0.21      0.21      0.43      0.01         0.01
  WS02006235WS02006234        0.01      0.01      0.07      5.76         0.01
  WS02006234WS02006232        0.01      0.01      0.66      0.01         0.01
  WS02006232WS02006231        0.01      0.01      0.66      0.01         0.01
  WS02006231WS02006230        0.01      0.01      0.01      5.75         0.01
  WS02006230WS02006229        1.56      4.76      1.56      5.84         1.56
  WS02006228WS02006109        0.93      1.17      0.93      5.51         0.93
  WS02006112WS02006115        0.01      0.01      0.22      0.01         0.01
  WS02006111WS02006112        0.01      0.01      5.26      0.01         0.01
  WS02006110WS02006113        0.01      0.01      1.04      0.01         0.01
  WS02006109WS02006110        0.01      0.01      1.17      0.01         0.01
  WS02004404WS02004405        0.01      0.01      0.01      5.63         0.01
  WS02003072WS02003073        0.01      0.01      0.01      5.54         0.01
  YS02001759YS02001757        5.22      5.22      5.36      0.01         0.01
  YS02001762YS02001759        5.15      5.15      5.22      0.01         0.02
  YS02001765YS02001762        5.00      5.00      5.15      0.01         0.01
  YS02001770YS02001767        4.25      4.26      4.36      0.01         0.57
  YS02001774YS02001770        3.78      3.78      5.11      0.01         0.01
  YS02001779YS02001774        0.34      0.34      5.11      0.01         0.01
  YS02001649YS02001757        5.17      5.17      5.36      0.01         0.01
  YS02001767YS02001765        4.36      4.36      5.00      0.01         0.02
  YS02001629YS02163301        3.42      3.42      3.94      0.01         0.01
  YS02001622YS02001625        0.01      0.01      2.34      0.01         0.01
  YS02001625YS02001629        0.01      0.01      2.34      0.01         0.01
  YS02163301YS02001633        3.94      3.94      5.03      0.01         0.01
  YS02163601YS02164001        5.01      5.01      5.17      0.01         0.01
  YS02164001YS02001641        5.01      5.01      5.08      0.01         0.01
  YS02001641YS02001644        5.07      5.08      5.08      0.01         0.32
  YS02001647YS02001649        2.26      2.26      5.17      0.01         0.01
  YS02001633YS02163601        4.83      4.83      5.17      0.01         0.01
  YS02001644YS02001647        2.26      2.26      5.08      0.01         0.01
  YS02001751YS02001754        0.01      0.01      0.70      0.01         0.01
  YS02001754YS02001757        2.28      2.28      5.36      0.01         0.01
  YS02001652YS02001649        2.47      2.47      5.17      0.01         0.01
  YS02001655YS02001652        0.01      0.01      1.90      0.01         0.01
  YS02001793JiankangQianchi        0.01      0.01      0.09      0.01         0.01
  YS02001757CaochengTiaoxuchi        0.01      0.01      5.36      0.01         0.01
  
  
  ***************
  Pumping Summary
  ***************
  
  ---------------------------------------------------------------------------------------------------------
                                                  Min       Avg       Max     Total     Power    % Time Off
                        Percent   Number of      Flow      Flow      Flow    Volume     Usage    Pump Curve
  Pump                 Utilized   Start-Ups       LPS       LPS       LPS  10^6 ltr     Kw-hr    Low   High
  ---------------------------------------------------------------------------------------------------------
  CC-Pump-1               42.55           1      0.00    195.75    200.00     2.340      6.22    0.0    0.0
  CC-Pump-2               28.44           1      0.00    190.99    200.00     1.514      5.23    0.0   41.7
  JK-Pump-1              100.00           1      0.00    158.14    300.00     3.337     65.33    0.0    0.0
  JK-Pump-2               76.59           1      0.00    158.87    300.00     3.100     61.41    0.0    0.0
  XR-Pump-1              100.00           2      0.00     92.87     95.00     2.622     52.01    0.0    0.0
  XR-Pump-2               36.17           1      0.00     91.97     95.00     0.912     17.67    0.0    0.0
  XR-Pump-3              100.00           1      0.00     95.00     95.00     2.679     53.48    0.0    0.0
  XR-Pump-4               76.59           1      0.00     94.77     95.00     2.023     46.16    0.0    0.0
  

  Analysis begun on:  Tue Dec 21 18:44:08 2021
  Analysis ended on:  Tue Dec 21 18:44:11 2021
  Total elapsed time: 00:00:03