
  EPA STORM WATER MANAGEMENT MODEL - VERSION 5.1 (Build 5.3.0.dev0)
  --------------------------------------------------------------

  WARNING 04: minimum elevation drop used for Conduit WS02004404WS02004405
  WARNING 03: negative offset ignored for Link YS02001904YS02001907
  
  *********************************************************
  NOTE: The summary statistics displayed in this report are
  based on results found at every computational time step,  
  not just on results from each reporting time step.
  *********************************************************
  
  ****************
  Analysis Options
  ****************
  Flow Units ............... LPS
  Process Models:
    Rainfall/Runoff ........ YES
    RDII ................... NO
    Snowmelt ............... NO
    Groundwater ............ NO
    Flow Routing ........... YES
    Ponding Allowed ........ NO
    Water Quality .......... NO
  Infiltration Method ...... HORTON
  Flow Routing Method ...... DYNWAVE
  Surcharge Method ......... EXTRAN
  Starting Date ............ 08/28/2015 08:00:00
  Ending Date .............. 08/28/2015 15:50:00
  Antecedent Dry Days ...... 8.0
  Report Time Step ......... 00:01:00
  Wet Time Step ............ 00:01:00
  Dry Time Step ............ 00:01:00
  Routing Time Step ........ 5.00 sec
  Variable Time Step ....... YES
  Maximum Trials ........... 8
  Number of Threads ........ 4
  Head Tolerance ........... 0.001500 m
  
  
  **************************        Volume         Depth
  Runoff Quantity Continuity     hectare-m            mm
  **************************     ---------       -------
  Total Precipitation ......         3.147         6.891
  Evaporation Loss .........         0.000         0.000
  Infiltration Loss ........         0.796         1.742
  Surface Runoff ...........         1.432         3.135
  Final Storage ............         0.920         2.015
  Continuity Error (%) .....        -0.018
  
  
  **************************        Volume        Volume
  Flow Routing Continuity        hectare-m      10^6 ltr
  **************************     ---------     ---------
  Dry Weather Inflow .......         0.616         6.165
  Wet Weather Inflow .......         1.431        14.311
  Groundwater Inflow .......         0.000         0.000
  RDII Inflow ..............         0.000         0.000
  External Inflow ..........         0.102         1.024
  External Outflow .........         1.667        16.673
  Flooding Loss ............         0.152         1.523
  Evaporation Loss .........         0.000         0.000
  Exfiltration Loss ........         0.000         0.000
  Initial Stored Volume ....         0.076         0.761
  Final Stored Volume ......         0.491         4.909
  Continuity Error (%) .....        -3.795
  
  
  *************************
  Highest Continuity Errors
  *************************
  Node YS02001774 (30.64%)
  Node HS02004842 (25.41%)
  Node YS02001884 (20.04%)
  Node JK-storage (-19.84%)
  Node YSB1171 (5.83%)
  
  
  ***************************
  Time-Step Critical Elements
  ***************************
  Link WS02006252WS02006251 (66.00%)
  Link 3 (28.33%)
  Link WS02006280WS02006229 (1.66%)
  
  
  ********************************
  Highest Flow Instability Indexes
  ********************************
  Link WS02006113WS02006111 (46)
  Link WS02006111WS02006112 (27)
  Link YS02001779YS02001774 (16)
  Link YS02001774YS02001770 (15)
  Link YS02006558YS02006561 (15)
  
  
  *************************
  Routing Time Step Summary
  *************************
  Minimum Time Step           :     0.40 sec
  Average Time Step           :     0.83 sec
  Maximum Time Step           :     5.00 sec
  Percent in Steady State     :    -0.00
  Average Iterations per Step :     3.68
  Percent Not Converging      :    18.34
  
  
  ***************************
  Subcatchment Runoff Summary
  ***************************
  
  ------------------------------------------------------------------------------------------------------------------------------
                            Total      Total      Total      Total     Imperv       Perv      Total       Total     Peak  Runoff
                           Precip      Runon       Evap      Infil     Runoff     Runoff     Runoff      Runoff   Runoff   Coeff
  Subcatchment                 mm         mm         mm         mm         mm         mm         mm    10^6 ltr      LPS
  ------------------------------------------------------------------------------------------------------------------------------
  sub0                       6.89       0.00       0.00       0.48       5.14       0.00       5.14        0.00     1.72   0.746
  sub1                       6.89       0.00       0.00       0.76       4.88       0.00       4.88        0.03     9.27   0.708
  sub2                       6.89       0.00       0.00       2.55       3.43       0.00       3.43        0.03     8.25   0.498
  sub3                       6.89       0.00       0.00       2.55       3.40       0.00       3.40        0.08    17.12   0.493
  sub4                       6.89       0.00       0.00       0.76       4.73       0.00       4.73        0.10    19.36   0.687
  sub5                       6.89       0.00       0.00       0.48       5.10       0.00       5.10        0.06    16.48   0.740
  sub7                       6.89       0.00       0.00       0.62       5.02       0.00       5.02        0.02     5.74   0.728
  sub8                       6.89       0.00       0.00       0.62       5.01       0.00       5.01        0.03    10.18   0.727
  sub9                       6.89       0.00       0.00       0.62       5.00       0.00       5.00        0.02     7.56   0.726
  sub10                      6.89       0.00       0.00       0.55       5.05       0.00       5.05        0.06    16.42   0.733
  sub11                      6.89       0.00       0.00       0.55       5.06       0.00       5.06        0.06    19.13   0.735
  sub12                      6.89       0.00       0.00       0.90       4.81       0.00       4.81        0.04    15.99   0.697
  sub14                      6.89       0.00       0.00       0.62       5.00       0.00       5.00        0.05    14.78   0.726
  sub15                      6.89       0.00       0.00       2.07       3.84       0.00       3.84        0.07    20.07   0.558
  sub16                      6.89       0.00       0.00       2.27       3.70       0.00       3.70        0.04    14.12   0.537
  sub17                      6.89       0.00       0.00       2.20       3.75       0.00       3.75        0.03    11.42   0.544
  sub22                      6.89       0.00       0.00       2.96       3.14       0.00       3.14        0.20    65.39   0.456
  sub23                      6.89       0.00       0.00       2.55       3.47       0.00       3.47        0.17    55.59   0.504
  sub60                      6.89       0.00       0.00       0.83       3.52       0.00       3.52        1.07   103.27   0.511
  sub61                      6.89       0.00       0.00       1.17       3.72       0.00       3.72        1.15   128.06   0.540
  sub62                      6.89       0.00       0.00       0.55       4.00       0.00       4.00        1.23   131.31   0.581
  sub63                      6.89       0.00       0.00       2.00       3.30       0.00       3.30        1.00   118.97   0.479
  sub64                      6.89       0.00       0.00       1.03       3.37       0.00       3.37        1.02    98.15   0.488
  sub65                      6.89       0.00       0.00       0.90       3.41       0.00       3.41        1.05    99.66   0.495
  sub66                      6.89       0.00       0.00       2.00       2.93       0.00       2.93        0.90    89.65   0.425
  sub67                      6.89       0.00       0.00       0.55       4.36       0.00       4.36        1.35   166.79   0.633
  sub68                      6.89       0.00       0.00       0.96       3.95       0.00       3.95        1.21   141.17   0.573
  sub69                      6.89       0.00       0.00       1.03       4.22       0.00       4.22        0.99   138.50   0.612
  sub70                      6.89       4.31       0.00       3.81       5.29       0.00       5.29        1.21   116.43   0.473
  sub71                      6.89       0.00       0.00       0.55       3.84       0.00       3.84        0.91    92.03   0.558
  sub72                      6.89       0.00       0.00       0.48       2.78       0.00       2.78        0.57    44.19   0.404
  sub73                      6.89       5.15       0.00       4.09       5.48       0.00       5.48        1.29   100.82   0.455
  sub74                      6.89       0.00       0.00       5.17       1.27       0.00       1.27        0.51    76.91   0.184
  
  
  ******************
  Node Depth Summary
  ******************
  
  ---------------------------------------------------------------------------------
                                 Average  Maximum  Maximum  Time of Max    Reported
                                   Depth    Depth      HGL   Occurrence   Max Depth
  Node                 Type       Meters   Meters   Meters  days hr:min      Meters
  ---------------------------------------------------------------------------------
  WS02001211           JUNCTION     0.71     0.79     5.63     0  02:40        0.79
  WS02001212           JUNCTION     0.42     0.51     5.57     0  02:39        0.51
  WS02001213           JUNCTION     0.65     0.76     5.52     0  02:38        0.76
  WS02003069           JUNCTION     0.44     0.59     5.17     0  02:38        0.59
  WS02003072           JUNCTION     0.51     0.64     5.01     0  02:38        0.64
  WS02003073           JUNCTION     0.30     0.40     4.46     0  02:39        0.40
  WS02003060           JUNCTION     0.39     0.52     5.45     0  02:37        0.52
  WS02003066           JUNCTION     0.22     0.30     5.85     0  02:35        0.30
  WS02003059           JUNCTION     0.70     0.81     5.50     0  02:38        0.81
  WS02003067           JUNCTION     0.54     0.70     6.02     0  02:35        0.70
  WS02004401           JUNCTION     0.63     0.86     6.86     0  02:31        0.86
  WS02004402           JUNCTION     0.66     0.89     6.85     0  02:32        0.89
  WS02004403           JUNCTION     0.68     0.90     6.83     0  02:32        0.90
  WS02004404           JUNCTION     0.76     0.97     6.82     0  02:32        0.97
  WS02004406           JUNCTION     0.77     0.96     6.79     0  02:32        0.96
  WS02004409           JUNCTION     0.45     0.67     6.44     0  02:34        0.67
  WS02004410           JUNCTION     0.47     0.69     6.41     0  02:34        0.69
  WS02004411           JUNCTION     0.48     0.70     6.38     0  02:34        0.70
  WS02004412           JUNCTION     0.50     0.70     6.34     0  02:35        0.70
  WS02004413           JUNCTION     0.66     0.86     6.33     0  02:35        0.86
  WS02004405           JUNCTION     0.76     0.96     6.81     0  02:32        0.96
  WS02006109           JUNCTION     0.70     0.98     7.60     0  02:29        0.98
  WS02006110           JUNCTION     0.70     0.93     7.51     0  02:29        0.93
  WS02006111           JUNCTION     0.20     0.29     7.00     0  02:29        0.29
  WS02006112           JUNCTION     0.79     1.07     6.95     0  02:30        1.06
  WS02006113           JUNCTION     0.31     0.46     7.35     0  02:29        0.46
  WS02006115           JUNCTION     0.52     0.76     6.90     0  02:31        0.76
  WS02006116           JUNCTION     0.60     0.84     6.88     0  02:31        0.84
  WS02006230           JUNCTION     0.65     1.02     7.77     0  02:30        1.02
  WS02006231           JUNCTION     0.43     0.69     7.81     0  02:30        0.69
  WS02006232           JUNCTION     0.56     0.81     7.85     0  02:30        0.81
  WS02006234           JUNCTION     0.47     0.74     7.90     0  02:31        0.74
  WS02006235           JUNCTION     0.50     0.77     7.93     0  02:31        0.77
  WS02006238           JUNCTION     0.52     0.80     7.94     0  02:32        0.79
  WS02006240           JUNCTION     0.43     0.69     7.99     0  02:32        0.69
  WS02006242           JUNCTION     0.50     0.75     8.02     0  02:32        0.75
  WS02006243           JUNCTION     0.38     0.62     8.04     0  02:33        0.62
  WS02006245           JUNCTION     0.38     0.58     8.06     0  02:33        0.58
  WS02006247           JUNCTION     0.40     0.58     8.08     0  02:33        0.58
  WS02006248           JUNCTION     0.35     0.51     8.10     0  02:33        0.51
  WS02006249           JUNCTION     0.39     0.52     8.12     0  02:33        0.52
  WS02006239           JUNCTION     0.48     0.76     7.96     0  02:32        0.75
  WS02006251           JUNCTION     0.37     0.49     8.16     0  02:33        0.49
  WS02006252           JUNCTION     0.32     0.35     8.59     0  02:17        0.35
  WS02006253           JUNCTION     0.40     0.52     8.16     0  02:33        0.52
  WS02006256           JUNCTION     0.83     1.21     8.14     0  02:31        1.21
  WS02004138           JUNCTION     0.17     0.19     7.44     0  02:01        0.19
  WS02004407           JUNCTION     0.20     0.30     6.61     0  02:32        0.30
  WS02006228           JUNCTION     0.69     1.02     7.67     0  02:28        1.02
  WS02006229           JUNCTION     0.66     1.02     7.71     0  02:28        1.02
  WS02006280           JUNCTION     0.06     0.16     8.43     0  02:17        0.16
  WS02006284           JUNCTION     0.35     0.50     8.90     0  02:16        0.50
  WS02006287           JUNCTION     0.09     0.24     9.19     0  02:16        0.24
  WSF200               JUNCTION     0.19     0.31     5.54     0  02:34        0.31
  HS02004901           JUNCTION     0.12     0.25    10.07     0  02:14        0.25
  HS02004881           JUNCTION     0.01     0.03     9.06     0  02:16        0.03
  HS02004876           JUNCTION     0.04     0.11     9.14     0  02:13        0.11
  HS02004870           JUNCTION     0.01     0.05     9.33     0  02:17        0.05
  HS02004862           JUNCTION     0.02     0.05     9.44     0  02:18        0.05
  HS02004856           JUNCTION     0.08     0.11     9.54     0  02:17        0.11
  HS02004852           JUNCTION     0.01     0.03     9.54     0  02:18        0.03
  HS02004848           JUNCTION     0.01     0.03     9.63     0  02:17        0.03
  HS02004842           JUNCTION     0.33     0.36     9.63     0  02:17        0.36
  HS02004837           JUNCTION     0.03     0.05     9.63     0  02:16        0.05
  HS02004830           JUNCTION     0.04     0.07     9.54     0  02:17        0.07
  HS02004824           JUNCTION     0.02     0.04     9.45     0  02:20        0.04
  HS02004817           JUNCTION     0.43     0.54     9.39     0  02:17        0.54
  HS02004807           JUNCTION     0.12     0.22     9.39     0  02:17        0.22
  HS02004802           JUNCTION     0.15     0.26     9.38     0  02:17        0.26
  HS02004799           JUNCTION     0.11     0.28     9.50     0  02:14        0.28
  HS02004792           JUNCTION     0.03     0.11     9.64     0  02:14        0.11
  HS02004788           JUNCTION     0.02     0.08     9.98     0  02:15        0.08
  HS02004785           JUNCTION     0.04     0.15    10.05     0  02:14        0.15
  HS02004777           JUNCTION     0.14     0.27    10.07     0  02:14        0.27
  HS02004770           JUNCTION     0.11     0.24    10.07     0  02:14        0.24
  HS02004480           JUNCTION     0.07     0.22     9.46     0  02:15        0.22
  HS02004479           JUNCTION     0.11     0.26     9.46     0  02:15        0.26
  HS02004478           JUNCTION     0.05     0.14     9.37     0  02:16        0.14
  YS02001745           JUNCTION     0.36     0.63     8.15     0  05:38        0.62
  YS02001748           JUNCTION     0.74     1.07     8.15     0  05:38        1.07
  YS02001751           JUNCTION     0.92     1.86     8.74     0  03:47        1.25
  YS02001754           JUNCTION     1.17     1.89     8.49     0  03:47        1.51
  YS02001762           JUNCTION     1.36     1.73     8.13     0  06:19        1.71
  YS02001765           JUNCTION     1.32     1.69     8.14     0  05:32        1.66
  YS02001767           JUNCTION     1.28     1.68     8.17     0  03:47        1.63
  YS02001770           JUNCTION     1.28     1.79     8.28     0  03:47        1.64
  YS02001774           JUNCTION     1.34     1.89     8.31     0  03:47        1.73
  YS02001779           JUNCTION     1.10     1.64     8.33     0  03:47        1.47
  YS02001882           JUNCTION     0.32     0.53     7.25     0  02:53        0.53
  YS02001884           JUNCTION     0.41     0.63     7.25     0  02:53        0.63
  YS02001759           JUNCTION     1.40     1.77     8.13     0  06:16        1.75
  YS02001887           JUNCTION     0.49     0.71     7.25     0  02:53        0.71
  YS02001890           JUNCTION     0.52     0.74     7.25     0  02:52        0.74
  YS02001898           JUNCTION     0.29     0.50     7.23     0  02:54        0.50
  YS02001901           JUNCTION     0.41     0.62     7.23     0  02:54        0.62
  YS02001904           JUNCTION     0.39     0.60     7.23     0  02:54        0.60
  YS02001907           JUNCTION     0.72     0.94     7.23     0  02:55        0.94
  YS02001910           JUNCTION     0.51     0.72     7.23     0  02:55        0.72
  YS02001915           JUNCTION     0.31     0.51     7.23     0  02:54        0.51
  YS02001918           JUNCTION     0.09     0.16     7.23     0  02:54        0.16
  YS02001619           JUNCTION     0.88     1.49     8.42     0  05:25        1.48
  YS02001629           JUNCTION     1.23     1.82     8.37     0  05:25        1.82
  YS02001641           JUNCTION     1.33     1.82     8.26     0  05:39        1.81
  YS02001644           JUNCTION     1.34     1.79     8.23     0  05:39        1.77
  YS02001652           JUNCTION     1.18     1.95     8.55     0  03:35        1.53
  YS02001655           JUNCTION     0.95     2.06     8.91     0  03:39        1.41
  YS02001920           JUNCTION     0.19     0.24     7.25     0  02:59        0.24
  YS02001923           JUNCTION     0.07     0.10     7.36     0  03:01        0.10
  YS02001926           JUNCTION     0.15     0.20     7.64     0  03:01        0.20
  YS02001929           JUNCTION     0.07     0.10     7.79     0  03:01        0.10
  YS02001658           JUNCTION     0.68     1.04     8.18     0  05:33        1.00
  YS02001661           JUNCTION     0.46     0.71     8.11     0  05:29        0.71
  YS02001664           JUNCTION     0.11     0.22     8.14     0  06:00        0.21
  YS02001622           JUNCTION     0.90     1.51     8.41     0  05:25        1.50
  YS02001633           JUNCTION     1.32     1.88     8.34     0  05:39        1.87
  YS02001649           JUNCTION     1.37     1.78     8.17     0  03:35        1.73
  YS02001757           JUNCTION     1.50     1.87     8.13     0  06:16        1.84
  YS02001895           JUNCTION     0.29     0.49     7.24     0  02:52        0.49
  YS02001625           JUNCTION     1.18     1.78     8.38     0  05:25        1.78
  YS02163301           JUNCTION     1.26     1.84     8.36     0  05:25        1.83
  YS02163601           JUNCTION     1.37     1.91     8.30     0  05:39        1.89
  YS02164001           JUNCTION     1.31     1.82     8.28     0  05:39        1.81
  YS02001647           JUNCTION     1.17     1.59     8.20     0  03:35        1.55
  YSB1154              JUNCTION     0.25     0.41     9.47     0  02:15        0.41
  YSB6556              JUNCTION     0.14     0.30     9.47     0  02:15        0.30
  YSB1174              JUNCTION     0.20     0.36     9.47     0  02:15        0.36
  YSB1171              JUNCTION     0.40     0.56     9.47     0  02:15        0.56
  YS02006553           JUNCTION     0.72     0.94     7.23     0  02:57        0.94
  YS02006561           JUNCTION     0.16     0.27     6.93     0  02:47        0.27
  YS02006556           JUNCTION     0.69     0.91     7.22     0  02:57        0.91
  YS02006558           JUNCTION     0.74     0.95     7.22     0  02:56        0.95
  YS02001783           JUNCTION     0.42     0.60     6.74     0  04:13        0.55
  YS02001784           JUNCTION     0.47     0.65     6.72     0  04:13        0.65
  YS02001786           JUNCTION     0.47     0.68     6.71     0  04:14        0.66
  YS02001788           JUNCTION     0.46     0.70     6.68     0  04:14        0.69
  YS02001790           JUNCTION     0.67     1.87     7.51     0  04:10        1.00
  YS02001791           JUNCTION     0.73     1.62     7.09     0  04:08        1.15
  YS02001793           JUNCTION     1.07     2.36     7.19     0  04:05        1.78
  WS02004139           JUNCTION     0.65     0.74     5.65     0  02:40        0.74
  WSC                  OUTFALL      0.30     0.40     1.07     0  02:39        0.40
  3                    OUTFALL      0.05     0.21     6.21     0  02:32        0.21
  4                    OUTFALL      0.00     0.02     7.02     0  02:33        0.02
  5                    OUTFALL      0.00     0.00     5.00     0  00:00        0.00
  JK-storage           STORAGE      3.59     5.80     6.60     0  04:12        5.80
  CC-storage           STORAGE      0.73     1.07     8.07     0  05:52        1.07
  XR-storage           STORAGE      3.37     5.60     3.60     0  01:51        5.60
  
  
  *******************
  Node Inflow Summary
  *******************
  
  -------------------------------------------------------------------------------------------------
                                  Maximum  Maximum                  Lateral       Total        Flow
                                  Lateral    Total  Time of Max      Inflow      Inflow     Balance
                                   Inflow   Inflow   Occurrence      Volume      Volume       Error
  Node                 Type           LPS      LPS  days hr:min    10^6 ltr    10^6 ltr     Percent
  -------------------------------------------------------------------------------------------------
  WS02001211           JUNCTION      7.35   388.00     0  03:17       0.207        8.13       0.452
  WS02001212           JUNCTION      0.00   388.38     0  03:17           0        8.09       0.252
  WS02001213           JUNCTION      0.00   388.74     0  03:17           0        8.07       0.271
  WS02003069           JUNCTION      0.32   949.02     0  02:37     0.00902        14.3       0.192
  WS02003072           JUNCTION      0.00   948.99     0  02:38           0        14.3       0.239
  WS02003073           JUNCTION      1.82   950.81     0  02:38      0.0514        14.3       0.266
  WS02003060           JUNCTION     16.53   948.67     0  02:37       0.466        14.3       0.182
  WS02003066           JUNCTION      0.00   547.90     0  02:35           0        5.87       0.064
  WS02003059           JUNCTION      0.00   389.32     0  03:16           0        8.05       0.469
  WS02003067           JUNCTION      0.00   547.88     0  02:35           0        5.88       0.139
  WS02004401           JUNCTION      0.00   550.45     0  02:31           0        6.08       0.311
  WS02004402           JUNCTION      0.00   550.10     0  02:31           0        6.07       0.297
  WS02004403           JUNCTION      0.00   549.87     0  02:32           0        6.05       0.274
  WS02004404           JUNCTION      0.16   550.03     0  02:32     0.00457        6.04       0.210
  WS02004406           JUNCTION      0.00   549.97     0  02:32           0        6.01       0.514
  WS02004409           JUNCTION      0.00   549.82     0  02:32           0        5.97       0.221
  WS02004410           JUNCTION      0.00   548.87     0  02:33           0        5.96       0.255
  WS02004411           JUNCTION      0.00   548.26     0  02:34           0        5.94       0.266
  WS02004412           JUNCTION      0.00   548.00     0  02:34           0        5.92       0.295
  WS02004413           JUNCTION      0.00   547.91     0  02:35           0        5.91       0.447
  WS02004405           JUNCTION      0.04   549.96     0  02:32     0.00107        6.02       0.315
  WS02006109           JUNCTION      1.23   544.64     0  02:29      0.0347        6.16       0.334
  WS02006110           JUNCTION      0.00   544.64     0  02:29           0        6.14       0.287
  WS02006111           JUNCTION      0.00   566.92     0  02:29           0        6.12       0.060
  WS02006112           JUNCTION     11.42   555.63     0  02:29      0.0322        6.14       0.432
  WS02006113           JUNCTION      0.00   544.88     0  02:29           0        6.12       0.129
  WS02006115           JUNCTION      0.00   557.33     0  02:30           0        6.12       0.275
  WS02006116           JUNCTION      0.00   551.74     0  02:31           0         6.1       0.266
  WS02006230           JUNCTION     10.28   349.79     0  02:55        0.29         5.1       0.265
  WS02006231           JUNCTION      0.00   338.75     0  02:55           0        4.82       0.141
  WS02006232           JUNCTION      0.00   338.65     0  02:55           0        4.83       0.297
  WS02006234           JUNCTION      0.00   338.09     0  02:56           0        4.84       0.118
  WS02006235           JUNCTION      0.00   337.81     0  02:55           0        4.88       0.198
  WS02006238           JUNCTION      0.00   249.12     0  03:30           0        4.17       0.153
  WS02006240           JUNCTION      0.00   238.58     0  02:41           0        4.16       0.239
  WS02006242           JUNCTION      0.00   238.14     0  02:40           0        4.16       0.310
  WS02006243           JUNCTION      0.00   237.07     0  02:39           0        4.16       0.161
  WS02006245           JUNCTION      0.00   241.58     0  02:22           0        4.16       0.188
  WS02006247           JUNCTION      0.00   244.44     0  02:22           0        4.17       0.158
  WS02006248           JUNCTION      0.00   246.11     0  02:22           0        4.17       0.108
  WS02006249           JUNCTION      0.00   247.80     0  02:21           0        4.18       0.227
  WS02006239           JUNCTION      0.00   239.18     0  02:41           0        4.16       0.229
  WS02006251           JUNCTION      0.08   249.71     0  02:18     0.00217        4.19       0.209
  WS02006252           JUNCTION      0.00   200.00     0  03:20           0        4.01       0.011
  WS02006253           JUNCTION      1.72    52.05     0  02:16     0.00416       0.183       1.980
  WS02006256           JUNCTION      0.00   600.00     0  02:21           0        3.14       0.086
  WS02004138           JUNCTION      0.00   380.00     0  02:00           0        7.95       0.058
  WS02004407           JUNCTION      0.00   549.87     0  02:32           0        5.97       0.102
  WS02006228           JUNCTION      0.00   543.42     0  02:29           0        6.14       0.218
  WS02006229           JUNCTION      0.00   543.38     0  02:29           0        6.15       0.197
  WS02006280           JUNCTION      0.00   261.70     0  02:17           0        1.06       0.006
  WS02006284           JUNCTION      0.10   261.70     0  02:16      0.0027        1.06       0.103
  WS02006287           JUNCTION      0.00   261.58     0  02:16           0        1.06       0.068
  WSF200               JUNCTION      0.00   547.91     0  02:35           0        5.87       0.058
  HS02004901           JUNCTION     14.12    14.12     0  02:09      0.0387      0.0388       4.739
  HS02004881           JUNCTION      5.74    50.69     0  02:16      0.0169       0.179       0.210
  HS02004876           JUNCTION      9.27    45.23     0  02:16      0.0324       0.163       0.328
  HS02004870           JUNCTION     10.18    36.13     0  02:16       0.032        0.13       0.082
  HS02004862           JUNCTION      8.45    26.57     0  02:17      0.0376      0.0985       0.173
  HS02004856           JUNCTION      7.56    18.17     0  02:16      0.0241      0.0623       2.371
  HS02004852           JUNCTION      0.00    11.06     0  02:17           0      0.0383       0.136
  HS02004848           JUNCTION     17.12    17.12     0  02:20      0.0765      0.0765       0.058
  HS02004842           JUNCTION      0.00     6.65     0  02:29           0      0.0512      34.058
  HS02004837           JUNCTION     22.77    28.31     0  02:16       0.235       0.273       0.298
  HS02004830           JUNCTION      0.15    28.44     0  02:17     0.00423       0.263       0.471
  HS02004824           JUNCTION     19.41    47.61     0  02:20         0.1       0.362       0.149
  HS02004817           JUNCTION      0.60    48.20     0  02:20      0.0169       0.378       4.606
  HS02004807           JUNCTION     19.13    65.70     0  02:18      0.0588       0.421       1.015
  HS02004802           JUNCTION      0.00    66.13     0  02:19           0       0.416       0.984
  HS02004799           JUNCTION     14.78   167.10     0  02:14      0.0476       0.565       0.406
  HS02004792           JUNCTION     65.67   152.53     0  02:13       0.206       0.517       0.079
  HS02004788           JUNCTION     21.74    88.72     0  02:14       0.113       0.313       0.126
  HS02004785           JUNCTION      0.15    67.26     0  02:14     0.00423       0.201       0.241
  HS02004777           JUNCTION      0.03    67.54     0  02:12    0.000846       0.202       2.635
  HS02004770           JUNCTION     55.59    68.62     0  02:11       0.165       0.203       1.553
  HS02004480           JUNCTION      0.00   197.17     0  02:15           0       0.661       0.114
  HS02004479           JUNCTION      0.00    30.69     0  02:16           0       0.109       0.674
  HS02004478           JUNCTION      0.00   261.56     0  02:16           0        1.06       0.057
  YS02001745           JUNCTION    103.27   212.90     0  04:31        1.07         1.4       0.404
  YS02001748           JUNCTION      0.04   365.31     0  03:29     0.00127        1.44       1.232
  YS02001751           JUNCTION      0.01   387.67     0  03:30     0.00031         1.1       1.946
  YS02001754           JUNCTION      0.26   174.43     0  03:34     0.00733        1.03       2.264
  YS02001762           JUNCTION      0.00   138.69     0  02:41           0        1.16       1.830
  YS02001765           JUNCTION      0.00   137.28     0  02:41           0        1.16       2.131
  YS02001767           JUNCTION      0.54   143.83     0  02:32      0.0151        1.18       3.134
  YS02001770           JUNCTION    131.47   150.30     0  02:33        1.23        1.26       2.585
  YS02001774           JUNCTION      0.00    49.63     0  02:14           0      0.0811      44.172
  YS02001779           JUNCTION      0.01    46.84     0  03:29    0.000141      0.0349      76.346
  YS02001882           JUNCTION      0.00     4.88     0  02:07           0     0.00644      38.593
  YS02001884           JUNCTION      0.00    13.66     0  02:10           0      0.0256      25.059
  YS02001759           JUNCTION    128.10   267.23     0  02:48        1.15        2.27       1.017
  YS02001887           JUNCTION    167.24   167.38     0  02:42        1.36        1.37       0.545
  YS02001890           JUNCTION      0.00   167.27     0  02:47           0        1.34       0.609
  YS02001898           JUNCTION      0.00   167.10     0  02:46           0        1.33       0.182
  YS02001901           JUNCTION      0.00   166.58     0  02:46           0        1.33       0.437
  YS02001904           JUNCTION      0.00   166.39     0  02:47           0        1.33       0.406
  YS02001907           JUNCTION      0.00   302.70     0  03:02           0        2.86       0.791
  YS02001910           JUNCTION      0.00   140.39     0  03:04           0        1.55       0.682
  YS02001915           JUNCTION     92.05   139.65     0  02:59       0.908        1.55       0.315
  YS02001918           JUNCTION      0.00    47.40     0  03:04           0       0.645       0.200
  YS02001619           JUNCTION     89.65    89.65     0  02:59       0.897       0.897       1.440
  YS02001629           JUNCTION      0.00   172.96     0  03:51           0       0.827       3.715
  YS02001641           JUNCTION      0.00   194.26     0  02:50           0        1.77       1.208
  YS02001644           JUNCTION     98.19   290.34     0  02:50        1.02        2.76       0.955
  YS02001652           JUNCTION      0.00   169.65     0  02:50           0       0.954       2.209
  YS02001655           JUNCTION      0.15   368.48     0  03:35     0.00434        1.02       2.298
  YS02001920           JUNCTION      2.87    47.04     0  03:01      0.0809       0.647       0.347
  YS02001923           JUNCTION      0.04    44.17     0  03:01     0.00106       0.566       0.062
  YS02001926           JUNCTION      0.05    44.22     0  03:01     0.00147       0.568       0.431
  YS02001929           JUNCTION     44.19    44.19     0  03:01       0.567       0.567       0.060
  YS02001658           JUNCTION      0.00   397.12     0  03:37           0        1.21       1.585
  YS02001661           JUNCTION      0.00   223.44     0  03:38           0        1.25       0.934
  YS02001664           JUNCTION    118.97   118.97     0  02:45       0.998        1.07       0.047
  YS02001622           JUNCTION      0.00   120.69     0  03:56           0       0.895       3.768
  YS02001633           JUNCTION     99.86   199.06     0  02:50        1.05        1.82       1.798
  YS02001649           JUNCTION      0.00   428.09     0  03:06           0        3.62       1.032
  YS02001757           JUNCTION      0.00   753.99     0  02:58           0        6.81       1.373
  YS02001895           JUNCTION      0.00   166.96     0  02:47           0        1.33       0.299
  YS02001625           JUNCTION      0.00   173.14     0  03:51           0       0.873       4.696
  YS02163301           JUNCTION      0.00   102.39     0  02:36           0       0.799       3.107
  YS02163601           JUNCTION      0.11   197.48     0  02:50      0.0031        1.79       1.717
  YS02164001           JUNCTION      0.00   196.59     0  02:50           0        1.77       1.157
  YS02001647           JUNCTION      0.00   288.94     0  02:50           0        2.72       0.999
  YSB1154              JUNCTION     16.48    16.48     0  02:14      0.0577       0.059       2.509
  YSB6556              JUNCTION      0.00    16.51     0  02:15           0      0.0599       2.126
  YSB1174              JUNCTION     15.99    15.99     0  02:08       0.042      0.0429       3.083
  YSB1171              JUNCTION      0.00    30.60     0  02:14           0       0.108       6.195
  YS02006553           JUNCTION      0.00   303.28     0  03:02           0        2.85       0.512
  YS02006561           JUNCTION      0.00   469.66     0  02:53           0        4.04       0.008
  YS02006556           JUNCTION      0.00   303.52     0  03:03           0        2.86       0.371
  YS02006558           JUNCTION    142.05   442.78     0  02:53        1.24        4.07       0.123
  YS02001783           JUNCTION      0.00   442.46     0  02:53           0        4.04       0.179
  YS02001784           JUNCTION      1.06   443.36     0  02:54      0.0299        4.06       0.262
  YS02001786           JUNCTION      0.06   443.33     0  02:54     0.00159        4.05       0.335
  YS02001788           JUNCTION      0.07   443.38     0  02:54       0.002        4.04       0.342
  YS02001790           JUNCTION      0.15   443.59     0  02:53     0.00437        4.03       0.427
  YS02001791           JUNCTION      0.00   443.51     0  02:56           0        4.01       0.366
  YS02001793           JUNCTION      0.00   443.52     0  02:56           0           4       0.403
  WS02004139           JUNCTION      0.32   380.32     0  02:01     0.00905        7.96       0.472
  WSC                  OUTFALL       0.00   950.84     0  02:39           0        14.3       0.000
  3                    OUTFALL       0.00   509.63     0  02:32           0         2.4       0.000
  4                    OUTFALL       0.00     5.04     0  02:33           0     0.00257       0.000
  5                    OUTFALL       0.00     0.00     0  00:00           0           0       0.000 ltr
  JK-storage           STORAGE       0.00   446.71     0  04:04           0        4.13     -16.554
  CC-storage           STORAGE       0.00   754.18     0  02:58           0        6.71       0.809
  XR-storage           STORAGE     366.60   366.60     0  02:56        7.43        8.03      -0.001
  
  
  **********************
  Node Surcharge Summary
  **********************
  
  Surcharging occurs when water rises above the top of the highest conduit.
  ---------------------------------------------------------------------
                                               Max. Height   Min. Depth
                                   Hours       Above Crown    Below Rim
  Node                 Type      Surcharged         Meters       Meters
  ---------------------------------------------------------------------
  WS02006109           JUNCTION        1.12          0.159        1.661
  WS02006110           JUNCTION        0.28          0.018        1.832
  WS02006112           JUNCTION        0.52          0.065        1.615
  WS02006232           JUNCTION        0.87          0.110        1.370
  WS02006234           JUNCTION        0.25          0.022        1.218
  WS02006235           JUNCTION        0.49          0.060        1.230
  WS02006238           JUNCTION        0.58          0.075        1.355
  WS02006242           JUNCTION        0.20          0.017        0.803
  WS02006239           JUNCTION        0.21          0.015        1.275
  WS02006228           JUNCTION        1.09          0.189        2.011
  YS02001751           JUNCTION        3.79          0.857        0.343
  YS02001754           JUNCTION        4.49          0.837        0.313
  YS02001762           JUNCTION        5.35          0.734        0.416
  YS02001765           JUNCTION        5.32          0.688        0.412
  YS02001767           JUNCTION        5.28          0.678        0.352
  YS02001770           JUNCTION        5.23          0.757        0.163
  YS02001774           JUNCTION        5.34          0.891        0.159
  YS02001779           JUNCTION        4.32          0.642        0.038
  YS02001759           JUNCTION        5.38          0.768        0.442
  YS02001619           JUNCTION        3.58          0.488        0.122
  YS02001629           JUNCTION        3.61          0.443        0.027
  YS02001641           JUNCTION        5.33          0.823        0.277
  YS02001644           JUNCTION        5.33          0.794        0.126
  YS02001652           JUNCTION        4.80          0.922        0.208
  YS02001655           JUNCTION        3.91          1.062        0.138
  YS02001658           JUNCTION        0.01          0.042        1.258
  YS02001622           JUNCTION        3.72          0.506        0.114
  YS02001633           JUNCTION        5.30          0.863        0.197
  YS02001649           JUNCTION        5.36          0.781        0.269
  YS02001757           JUNCTION        5.46          0.866        0.344
  YS02001625           JUNCTION        5.05          0.780        0.000
  YS02163301           JUNCTION        5.26          0.838        0.192
  YS02163601           JUNCTION        5.36          0.906        0.174
  YS02164001           JUNCTION        5.32          0.825        0.275
  YS02001647           JUNCTION        4.99          0.586        0.314
  YS02001790           JUNCTION        3.65          1.066        0.091
  YS02001791           JUNCTION        3.68          0.817        1.103
  YS02001793           JUNCTION        3.73          1.360        1.240
  
  
  *********************
  Node Flooding Summary
  *********************
  
  Flooding refers to all water that overflows a node, whether it ponds or not.
  --------------------------------------------------------------------------
                                                             Total   Maximum
                                 Maximum   Time of Max       Flood    Ponded
                        Hours       Rate    Occurrence      Volume     Depth
  Node                 Flooded       LPS   days hr:min    10^6 ltr    Meters
  --------------------------------------------------------------------------
  YS02001625              0.01      0.75      0  05:25       0.000     0.000
  JK-storage              3.63    287.50      0  04:14       1.523     0.000
  
  
  **********************
  Storage Volume Summary
  **********************
  
  --------------------------------------------------------------------------------------------------
                         Average     Avg  Evap Exfil       Maximum     Max    Time of Max    Maximum
                          Volume    Pcnt  Pcnt  Pcnt        Volume    Pcnt     Occurrence    Outflow
  Storage Unit           1000 m3    Full  Loss  Loss       1000 m3    Full    days hr:min        LPS
  --------------------------------------------------------------------------------------------------
  JK-storage               0.180      62     0     0         0.291     100       0  04:12     600.00
  CC-storage               2.047      13     0     0         2.989      19       0  05:52     200.00
  XR-storage               0.404      44     0     0         0.672      73       0  01:51     380.00
  
  
  ***********************
  Outfall Loading Summary
  ***********************
  
  -----------------------------------------------------------
                         Flow       Avg       Max       Total
                         Freq      Flow      Flow      Volume
  Outfall Node           Pcnt       LPS       LPS    10^6 ltr
  -----------------------------------------------------------
  WSC                   99.99    599.22    950.84      14.275
  3                     31.95    396.01    509.63       2.395
  4                      5.62      2.51      5.04       0.003
  5                      0.00      0.00      0.00       0.000
  -----------------------------------------------------------
  System                34.39    997.73   1460.25      16.673
  
  
  ********************
  Link Flow Summary
  ********************
  
  -----------------------------------------------------------------------------
                                 Maximum  Time of Max   Maximum    Max/    Max/
                                  |Flow|   Occurrence   |Veloc|    Full    Full
  Link                 Type          LPS  days hr:min     m/sec    Flow   Depth
  -----------------------------------------------------------------------------
  WS02003066WSF200     CONDUIT    547.91     0  02:35      2.77    0.09    0.23
  WS02006287WS02006284 CONDUIT    261.60     0  02:16      1.76    0.12    0.24
  WS02006284WS02006280 CONDUIT    261.70     0  02:17      2.00    0.11    0.22
  WS02006280WS02006229 CONDUIT    261.71     0  02:17      3.22    0.06    0.16
  WS02006229WS02006228 CONDUIT    543.42     0  02:29      1.08    1.80    1.00
  WS02006256WS02006235 CONDUIT    166.25     0  00:01      2.58    1.76    1.00
  WS02006253WS02006251 CONDUIT     51.58     0  02:14      0.53    0.15    0.71
  WS02006252WS02006251 CONDUIT    200.68     0  02:17      1.97    0.74    0.76
  WS02006251WS02006249 CONDUIT    247.80     0  02:21      1.00    0.71    0.72
  WS02006249WS02006248 CONDUIT    246.11     0  02:22      1.08    1.35    0.72
  WS02006248WS02006247 CONDUIT    244.44     0  02:22      1.04    0.53    0.77
  WS02006247WS02006245 CONDUIT    241.58     0  02:22      0.99    1.92    0.82
  WS02006245WS02006243 CONDUIT    237.07     0  02:39      1.02    0.70    0.85
  WS02006243WS02006242 CONDUIT    238.14     0  02:40      0.85    0.51    0.94
  WS02006242WS02006240 CONDUIT    238.58     0  02:41      0.78    0.95    0.99
  WS02006240WS02006239 CONDUIT    239.18     0  02:41      0.86    0.75    1.00
  WS02006239WS02006238 CONDUIT    249.12     0  03:30      0.77    0.80    1.00
  WS02006238WS02006235 CONDUIT    254.45     0  03:30      1.25    0.57    1.00
  WS02006235WS02006234 CONDUIT    338.09     0  02:56      0.94    3.57    1.00
  WS02006234WS02006232 CONDUIT    338.65     0  02:55      1.13    0.69    1.00
  WS02006232WS02006231 CONDUIT    338.75     0  02:55      0.93    0.71    0.98
  WS02006231WS02006230 CONDUIT    339.51     0  02:55      1.23    5.15    0.95
  WS02006230WS02006229 CONDUIT    350.82     0  02:55      0.91    7.81    1.00
  WS02006228WS02006109 CONDUIT    543.41     0  02:29      1.08    2.37    1.00
  WS02006116WS02004401 CONDUIT    550.45     0  02:31      0.77    0.76    0.85
  WS02006115WS02006116 CONDUIT    551.74     0  02:31      0.86    0.71    0.77
  WS02006113WS02006111 CONDUIT    566.92     0  02:29      2.47    0.68    0.47
  WS02006112WS02006115 CONDUIT    557.33     0  02:30      0.76    0.33    0.88
  WS02006111WS02006112 CONDUIT    548.59     0  02:29      1.52    0.26    0.67
  WS02006110WS02006113 CONDUIT    544.88     0  02:29      1.29    0.50    0.79
  WS02006109WS02006110 CONDUIT    544.64     0  02:29      1.08    1.05    1.00
  WS02004411WS02004412 CONDUIT    548.00     0  02:34      0.93    0.78    0.70
  WS02004401WS02004402 CONDUIT    550.10     0  02:31      0.77    0.66    0.87
  WS02004413WS02003067 CONDUIT    547.88     0  02:35      1.12    0.23    0.60
  WS02004412WS02004413 CONDUIT    547.91     0  02:35      0.83    0.37    0.78
  WS02004410WS02004411 CONDUIT    548.26     0  02:34      0.95    0.75    0.69
  WS02004409WS02004410 CONDUIT    548.87     0  02:33      0.97    0.71    0.68
  WS02004407WS02004409 CONDUIT    549.82     0  02:32      1.47    0.19    0.49
  WS02004406WS02004407 CONDUIT    549.87     0  02:32      1.05    0.25    0.63
  WS02004405WS02004406 CONDUIT    549.97     0  02:32      0.71    1.08    0.96
  WS02004404WS02004405 CONDUIT    549.92     0  02:32      0.84    5.39    0.97
  WS02004403WS02004404 CONDUIT    549.87     0  02:32      0.74    0.40    0.94
  WS02004402WS02004403 CONDUIT    549.87     0  02:32      0.75    0.79    0.89
  WS02004139WS02001211 CONDUIT    380.65     0  03:17      0.69    0.48    0.60
  WS02004138WS02004139 CONDUIT    380.00     0  02:01      2.94    0.08    0.44
  WS02003067WS02003066 CONDUIT    547.90     0  02:35      1.22    0.18    0.42
  WS02001213WS02003059 CONDUIT    389.32     0  03:16      0.68    0.64    0.78
  WS02001212WS02001213 CONDUIT    388.74     0  03:17      1.32    0.60    0.47
  WS02001211WS02001212 CONDUIT    388.38     0  03:17      0.78    0.30    0.65
  WS02003072WS02003073 CONDUIT    948.99     0  02:38      1.73    2.05    0.49
  WS02003069WS02003072 CONDUIT    948.99     0  02:38      1.63    0.46    0.51
  WS02003060WS02003069 CONDUIT    948.70     0  02:37      1.87    0.37    0.46
  WS02003059WS02003060 CONDUIT    390.11     0  03:15      0.93    0.25    0.66
  HS02004901HS02004770 CONDUIT     13.25     0  02:12      0.05    0.05    0.35
  HS02004876HS02004881 CONDUIT     45.37     0  02:16      0.68    0.48    0.10
  HS02004870HS02004876 CONDUIT     36.11     0  02:17      0.47    0.02    0.11
  HS02004842HS02004848 CONDUIT      6.65     0  02:29      0.03    0.00    0.28
  HS02004837HS02004842 CONDUIT      6.88     0  02:30      0.41    0.00    0.30
  HS02004830HS02004837 CONDUIT     28.29     0  02:17      0.48    0.03    0.08
  HS02004824HS02004830 CONDUIT     28.44     0  02:17      0.51    0.04    0.08
  HS02004817HS02004824 CONDUIT     47.60     0  02:20      0.17    0.02    0.42
  HS02004770HS02004777 CONDUIT     67.51     0  02:12      0.27    0.12    0.36
  HS02004799HS02004480 CONDUIT    166.86     0  02:14      0.67    0.21    0.35
  HS02004792HS02004799 CONDUIT    152.46     0  02:14      0.77    0.09    0.28
  HS02004788HS02004792 CONDUIT     88.65     0  02:15      0.91    0.06    0.14
  HS02004785HS02004788 CONDUIT     67.17     0  02:14      0.58    0.51    0.17
  HS02004777HS02004785 CONDUIT     67.11     0  02:14      0.32    0.08    0.30
  HS02004480HS02004478 CONDUIT    197.13     0  02:15      1.06    0.83    0.26
  HS02004479HS02004480 CONDUIT     30.93     0  02:16      0.16    0.03    0.34
  HS02004862HS02004870 CONDUIT     26.53     0  02:18      0.52    0.03    0.07
  HS02004848HS02004852 CONDUIT     11.06     0  02:17      0.35    0.01    0.05
  HS02004856HS02004862 CONDUIT     18.14     0  02:17      0.38    0.02    0.07
  HS02004852HS02004856 CONDUIT     11.02     0  02:18      0.16    0.01    0.10
  HS02004802HS02004478 CONDUIT     66.64     0  02:20      0.34    0.06    0.29
  HS02004478WS02006287 CONDUIT    261.58     0  02:16      1.45    0.07    0.20
  HS02004817HS02004807 CONDUIT     48.93     0  02:22      0.13    0.03    0.55
  HS02004807HS02004802 CONDUIT     66.13     0  02:19      0.29    0.13    0.33
  YS02001759YS02001757 CONDUIT    267.53     0  02:48      0.34    0.19    1.00
  YS02001762YS02001759 CONDUIT    139.14     0  02:48      0.18    0.16    1.00
  YS02001765YS02001762 CONDUIT    138.69     0  02:41      0.23    0.13    1.00
  YS02001770YS02001767 CONDUIT    143.30     0  02:32      0.30    0.57    1.00
  YS02001774YS02001770 CONDUIT     49.63     0  02:14      0.14    0.03    1.00
  YS02001779YS02001774 CONDUIT     46.84     0  03:29      0.07    0.02    1.00
  YS02001649YS02001757 CONDUIT    428.19     0  03:06      0.55    0.26    1.00
  YS02001767YS02001765 CONDUIT    137.28     0  02:41      0.26    0.17    1.00
  YS02006561YS02001783 CONDUIT    442.46     0  02:53      1.94    0.23    0.49
  YS02001783YS02001784 CONDUIT    442.30     0  02:54      1.38    0.61    0.75
  YS02001784YS02001785 CONDUIT    443.28     0  02:54      1.48    1.03    0.82
  YS02001788YS02001790 CONDUIT    443.43     0  02:53      2.04    0.33    0.94
  YS02001790YS02001791 CONDUIT    443.51     0  02:56      2.38    0.48    1.00
  YS02001791YS02001793 CONDUIT    443.52     0  02:56      4.54    0.19    1.00
  YS02001910YS02001907 CONDUIT    141.35     0  03:04      0.49    0.08    0.83
  YS02001786YS02001788 CONDUIT    443.31     0  02:54      1.93    0.85    0.86
  YS02001915YS02001910 CONDUIT    140.39     0  03:04      0.45    0.07    0.62
  YS02001918YS02001915 CONDUIT     49.14     0  03:08      0.44    0.03    0.33
  YS02001923YS02001920 CONDUIT     44.17     0  03:01      0.51    0.02    0.17
  YS02001926YS02001923 CONDUIT     44.13     0  03:01      0.56    0.06    0.16
  YS02001929YS02001926 CONDUIT     44.17     0  03:01      0.60    0.02    0.15
  YS02001920YS02001918 CONDUIT     47.40     0  03:04      0.52    0.05    0.20
  YS02001629YS02163301 CONDUIT    102.39     0  02:36      0.13    0.13    1.00
  YS02001619YS02001622 CONDUIT    120.69     0  03:56      0.70    0.18    1.00
  YS02001622YS02001625 CONDUIT    173.14     0  03:51      0.29    0.09    1.00
  YS02001625YS02001629 CONDUIT    172.96     0  03:51      0.28    0.08    1.00
  YS02163301YS02001633 CONDUIT    102.16     0  03:09      0.13    0.10    1.00
  YS02163601YS02164001 CONDUIT    196.59     0  02:50      0.25    0.17    1.00
  YS02164001YS02001641 CONDUIT    194.26     0  02:50      0.25    0.27    1.00
  YS02001641YS02001644 CONDUIT    193.42     0  02:50      0.25    0.63    1.00
  YS02001647YS02001649 CONDUIT    317.45     0  02:50      0.40    0.17    1.00
  YS02006553YS02006556 CONDUIT    303.52     0  03:03      0.41    0.26    0.91
  YS02006556YS02006558 CONDUIT    305.27     0  03:03      0.40    0.24    0.93
  YSB6556YSB1171       CONDUIT     16.80     0  02:18      0.07    0.02    0.61
  YS02001907YS02006553 CONDUIT    303.28     0  03:02      0.34    0.36    1.00
  YS02006558YS02006561 CONDUIT    469.66     0  02:53      2.67    1.04    0.60
  YS02001633YS02163601 CONDUIT    197.37     0  02:50      0.25    0.21    1.00
  YS02001644YS02001647 CONDUIT    288.94     0  02:50      0.37    0.17    1.00
  YS02001745YS02001748 CONDUIT    257.89     0  04:31      1.50    0.10    0.75
  YS02001748YS02001751 CONDUIT    387.66     0  03:30      1.16    0.20    1.00
  YS02001751YS02001754 CONDUIT    174.17     0  03:34      1.00    0.08    1.00
  YS02001754YS02001757 CONDUIT    175.71     0  03:32      0.33    0.07    1.00
  YS02001882YS02001884 CONDUIT      4.88     0  02:07      0.06    0.01    0.55
  YS02001884YS02001887 CONDUIT     13.66     0  02:10      0.06    0.02    0.65
  YS02001890YS02001895 CONDUIT    166.96     0  02:47      0.33    0.08    0.62
  YS02001895YS02001898 CONDUIT    167.10     0  02:46      0.49    0.29    0.48
  YS02001898YS02001901 CONDUIT    166.58     0  02:46      0.37    0.11    0.56
  YS02001901YS02001904 CONDUIT    166.39     0  02:47      0.33    0.26    0.61
  YS02001904YS02001907 CONDUIT    166.08     0  02:45      0.26    0.06    0.77
  YS02001887YS02001890 CONDUIT    167.27     0  02:47      0.29    0.29    0.70
  YS02001652YS02001649 CONDUIT    170.48     0  03:15      0.33    0.08    1.00
  YS02001655YS02001652 CONDUIT    169.65     0  02:50      1.07    0.08    1.00
  YS02001658YS02001655 CONDUIT    352.69     0  03:35      1.34    0.15    1.00
  YS02001661YS02001658 CONDUIT    292.01     0  03:38      1.56    0.11    0.80
  YS02001664YS02001661 CONDUIT    123.12     0  05:44      1.29    0.04    0.44
  YSB1154YSB6556       CONDUIT     16.51     0  02:15      0.19    0.03    0.50
  YSB1174YSB1171       CONDUIT     14.88     0  02:09      0.06    0.02    0.62
  YSB1171HS02004479    CONDUIT     30.69     0  02:16      0.54    0.02    0.48
  HS02004881HS02006253 CONDUIT     50.71     0  02:16      1.84    0.01    0.14
  YS02001793JiankangQianchi CONDUIT    446.71     0  04:04     14.67    0.04    1.00
  YS02001757CaochengTiaoxuchi CONDUIT    754.18     0  02:58      1.58    0.33    1.00
  WSF200WS02003060     CONDUIT    548.00     0  02:35      1.60    0.12    0.34
  1                    CONDUIT    950.84     0  02:39      3.28    0.33    0.40
  2                    CONDUIT      5.04     0  02:33      2.01    0.01    0.08
  3                    CONDUIT    509.63     0  02:32      9.82    0.81    0.69
  4                    CONDUIT      0.00     0  00:00      0.00    0.00    0.00
  CC-Pump-1            PUMP       200.00     0  03:50              1.00
  CC-Pump-2            PUMP       200.00     0  02:17              1.00
  JK-Pump-1            PUMP       300.00     0  00:00              1.00
  JK-Pump-2            PUMP       300.00     0  02:21              1.00
  XR-Pump-1            PUMP        95.00     0  00:00              1.00
  XR-Pump-2            PUMP        95.00     0  02:00              1.00
  XR-Pump-3            PUMP        95.00     0  00:00              1.00
  XR-Pump-4            PUMP        95.00     0  02:00              1.00
  
  
  ***************************
  Flow Classification Summary
  ***************************
  
  -------------------------------------------------------------------------------------
                      Adjusted    ---------- Fraction of Time in Flow Class ---------- 
                       /Actual         Up    Down  Sub   Sup   Up    Down  Norm  Inlet 
  Conduit               Length    Dry  Dry   Dry   Crit  Crit  Crit  Crit  Ltd   Ctrl  
  -------------------------------------------------------------------------------------
  WS02003066WSF200        1.00   0.06  0.00  0.00  0.00  0.94  0.00  0.00  0.69  0.00
  WS02006287WS02006284    1.00   0.04  0.01  0.00  0.65  0.30  0.00  0.00  0.76  0.00
  WS02006284WS02006280    1.00   0.04  0.00  0.00  0.00  0.00  0.00  0.96  0.00  0.00
  WS02006280WS02006229    1.00   0.04  0.00  0.00  0.00  0.00  0.00  0.96  0.00  0.00
  WS02006229WS02006228    1.00   0.00  0.00  0.00  0.99  0.00  0.00  0.01  0.00  0.00
  WS02006256WS02006235    1.00   0.00  0.00  0.00  1.00  0.00  0.00  0.00  0.00  0.00
  WS02006253WS02006251    1.00   0.03  0.01  0.00  0.96  0.00  0.00  0.00  0.00  0.00
  WS02006252WS02006251    1.00   0.08  0.00  0.00  0.00  0.00  0.92  0.00  0.00  0.00
  WS02006251WS02006249    1.00   0.00  0.00  0.00  1.00  0.00  0.00  0.00  0.25  0.00
  WS02006249WS02006248    1.00   0.00  0.02  0.00  0.92  0.00  0.06  0.00  0.00  0.00
  WS02006248WS02006247    1.00   0.02  0.00  0.00  0.98  0.00  0.00  0.00  0.15  0.00
  WS02006247WS02006245    1.00   0.02  0.00  0.00  0.98  0.00  0.00  0.00  0.00  0.00
  WS02006245WS02006243    1.00   0.01  0.00  0.00  0.94  0.00  0.00  0.04  0.01  0.00
  WS02006243WS02006242    1.00   0.01  0.00  0.00  0.99  0.00  0.00  0.00  0.25  0.00
  WS02006242WS02006240    1.00   0.00  0.00  0.00  1.00  0.00  0.00  0.00  0.00  0.00
  WS02006240WS02006239    1.00   0.00  0.00  0.00  0.96  0.00  0.00  0.04  0.01  0.00
  WS02006239WS02006238    1.00   0.00  0.00  0.00  1.00  0.00  0.00  0.00  0.00  0.00
  WS02006238WS02006235    1.00   0.00  0.00  0.00  1.00  0.00  0.00  0.00  0.00  0.00
  WS02006235WS02006234    1.00   0.00  0.00  0.00  0.96  0.00  0.04  0.00  0.00  0.00
  WS02006234WS02006232    1.00   0.00  0.00  0.00  1.00  0.00  0.00  0.00  0.15  0.00
  WS02006232WS02006231    1.00   0.00  0.00  0.00  0.99  0.00  0.00  0.00  0.00  0.00
  WS02006231WS02006230    1.00   0.00  0.00  0.00  0.31  0.00  0.68  0.00  0.00  0.00
  WS02006230WS02006229    1.00   0.00  0.00  0.00  0.99  0.00  0.00  0.01  0.01  0.00
  WS02006228WS02006109    1.00   0.00  0.00  0.00  1.00  0.00  0.00  0.00  0.00  0.00
  WS02006116WS02004401    1.00   0.02  0.00  0.00  0.98  0.00  0.00  0.00  0.00  0.00
  WS02006115WS02006116    1.00   0.02  0.00  0.00  0.97  0.00  0.00  0.01  0.00  0.00
  WS02006113WS02006111    1.00   0.02  0.00  0.00  0.00  0.98  0.00  0.00  0.12  0.00
  WS02006112WS02006115    1.00   0.02  0.00  0.00  0.97  0.00  0.00  0.00  0.00  0.00
  WS02006111WS02006112    1.00   0.02  0.00  0.00  0.98  0.00  0.00  0.00  0.98  0.00
  WS02006110WS02006113    1.00   0.01  0.01  0.00  0.98  0.00  0.00  0.00  0.00  0.00
  WS02006109WS02006110    1.00   0.00  0.01  0.00  0.98  0.00  0.01  0.00  0.00  0.00
  WS02004411WS02004412    1.00   0.04  0.00  0.00  0.96  0.00  0.00  0.00  0.00  0.00
  WS02004401WS02004402    1.00   0.02  0.00  0.00  0.97  0.00  0.00  0.00  0.00  0.00
  WS02004413WS02003067    1.00   0.04  0.01  0.00  0.00  0.00  0.95  0.00  0.00  0.00
  WS02004412WS02004413    1.00   0.04  0.00  0.00  0.96  0.00  0.00  0.00  0.03  0.00
  WS02004410WS02004411    1.00   0.04  0.00  0.00  0.96  0.00  0.00  0.00  0.04  0.00
  WS02004409WS02004410    1.00   0.04  0.00  0.00  0.96  0.00  0.00  0.00  0.04  0.00
  WS02004407WS02004409    1.00   0.04  0.00  0.00  0.96  0.00  0.00  0.00  0.89  0.00
  WS02004406WS02004407    1.00   0.00  0.04  0.00  0.96  0.00  0.00  0.00  0.00  0.00
  WS02004405WS02004406    1.00   0.00  0.00  0.00  1.00  0.00  0.00  0.00  0.01  0.00
  WS02004404WS02004405    1.00   0.00  0.00  0.00  1.00  0.00  0.00  0.00  0.00  0.00
  WS02004403WS02004404    1.00   0.00  0.03  0.00  0.97  0.00  0.00  0.00  0.01  0.00
  WS02004402WS02004403    1.00   0.03  0.00  0.00  0.97  0.00  0.00  0.00  0.00  0.00
  WS02004139WS02001211    1.00   0.00  0.00  0.00  1.00  0.00  0.00  0.00  0.00  0.00
  WS02004138WS02004139    1.00   0.00  0.00  0.00  0.99  0.01  0.00  0.00  1.00  0.00
  WS02003067WS02003066    1.00   0.05  0.00  0.00  0.94  0.00  0.00  0.00  0.00  0.00
  WS02001213WS02003059    1.00   0.00  0.00  0.00  0.99  0.00  0.00  0.00  0.00  0.00
  WS02001212WS02001213    1.00   0.00  0.00  0.00  0.93  0.00  0.06  0.00  0.00  0.00
  WS02001211WS02001212    1.00   0.00  0.00  0.00  1.00  0.00  0.00  0.00  0.00  0.00
  WS02003072WS02003073    1.00   0.00  0.00  0.00  0.00  0.00  0.00  1.00  0.00  0.00
  WS02003069WS02003072    1.00   0.00  0.00  0.00  0.99  0.01  0.00  0.00  0.23  0.00
  WS02003060WS02003069    1.00   0.00  0.00  0.00  0.99  0.01  0.00  0.00  0.20  0.00
  WS02003059WS02003060    1.00   0.00  0.00  0.00  1.00  0.00  0.00  0.00  0.01  0.00
  HS02004901HS02004770    1.00   0.04  0.00  0.00  0.96  0.00  0.00  0.00  0.02  0.00
  HS02004876HS02004881    1.00   0.02  0.00  0.00  0.98  0.00  0.00  0.00  0.00  0.00
  HS02004870HS02004876    1.00   0.01  0.00  0.00  0.99  0.00  0.00  0.00  0.95  0.00
  HS02004842HS02004848    1.00   0.00  0.04  0.00  0.96  0.00  0.00  0.00  0.67  0.00
  HS02004837HS02004842    1.00   0.00  0.00  0.00  0.99  0.01  0.00  0.00  0.11  0.00
  HS02004830HS02004837    1.00   0.00  0.00  0.00  1.00  0.00  0.00  0.00  0.99  0.00
  HS02004824HS02004830    1.00   0.00  0.00  0.00  1.00  0.00  0.00  0.00  0.00  0.00
  HS02004817HS02004824    1.00   0.00  0.00  0.00  1.00  0.00  0.00  0.00  1.00  0.00
  HS02004770HS02004777    1.00   0.00  0.04  0.00  0.96  0.00  0.00  0.00  0.07  0.00
  HS02004799HS02004480    1.00   0.00  0.02  0.00  0.95  0.00  0.03  0.00  0.00  0.00
  HS02004792HS02004799    1.00   0.00  0.00  0.00  0.99  0.01  0.00  0.00  0.98  0.00
  HS02004788HS02004792    1.00   0.00  0.00  0.00  0.99  0.01  0.00  0.00  0.98  0.00
  HS02004785HS02004788    1.00   0.00  0.00  0.00  1.00  0.00  0.00  0.00  0.00  0.00
  HS02004777HS02004785    1.00   0.00  0.00  0.00  1.00  0.00  0.00  0.00  0.20  0.00
  HS02004480HS02004478    1.00   0.05  0.00  0.00  0.70  0.00  0.00  0.26  0.00  0.00
  HS02004479HS02004480    1.00   0.03  0.00  0.00  0.97  0.00  0.00  0.00  0.15  0.00
  HS02004862HS02004870    1.00   0.00  0.00  0.00  1.00  0.00  0.00  0.00  0.06  0.00
  HS02004848HS02004852    1.00   0.04  0.00  0.00  0.96  0.00  0.00  0.00  0.71  0.00
  HS02004856HS02004862    1.00   0.00  0.06  0.00  0.94  0.00  0.00  0.00  0.75  0.00
  HS02004852HS02004856    1.00   0.04  0.01  0.00  0.95  0.00  0.00  0.00  0.83  0.00
  HS02004802HS02004478    1.00   0.04  0.00  0.00  0.95  0.00  0.00  0.00  0.01  0.00
  HS02004478WS02006287    1.00   0.05  0.00  0.00  0.83  0.12  0.00  0.00  0.74  0.00
  HS02004817HS02004807    1.00   0.00  0.04  0.00  0.96  0.00  0.00  0.00  0.00  0.00
  HS02004807HS02004802    1.00   0.04  0.00  0.00  0.95  0.00  0.00  0.00  0.01  0.00
  YS02001759YS02001757    1.00   0.00  0.00  0.00  1.00  0.00  0.00  0.00  0.17  0.00
  YS02001762YS02001759    1.00   0.00  0.00  0.00  1.00  0.00  0.00  0.00  0.04  0.00
  YS02001765YS02001762    1.00   0.00  0.00  0.00  1.00  0.00  0.00  0.00  0.21  0.00
  YS02001770YS02001767    1.00   0.00  0.00  0.00  1.00  0.00  0.00  0.00  0.00  0.00
  YS02001774YS02001770    1.00   0.00  0.05  0.00  0.95  0.00  0.00  0.00  0.06  0.00
  YS02001779YS02001774    1.00   0.00  0.00  0.00  1.00  0.00  0.00  0.00  0.26  0.00
  YS02001649YS02001757    1.00   0.00  0.00  0.00  1.00  0.00  0.00  0.00  0.19  0.00
  YS02001767YS02001765    1.00   0.00  0.00  0.00  1.00  0.00  0.00  0.00  0.01  0.00
  YS02006561YS02001783    1.00   0.07  0.00  0.00  0.57  0.37  0.00  0.00  0.62  0.00
  YS02001783YS02001784    1.00   0.00  0.07  0.00  0.93  0.00  0.00  0.00  0.00  0.00
  YS02001784YS02001785    1.00   0.00  0.00  0.00  1.00  0.00  0.00  0.00  0.25  0.00
  YS02001788YS02001790    1.00   0.00  0.00  0.00  0.64  0.36  0.00  0.00  0.27  0.00
  YS02001790YS02001791    1.00   0.00  0.00  0.00  0.60  0.40  0.00  0.00  0.24  0.00
  YS02001791YS02001793    1.00   0.00  0.00  0.00  0.59  0.41  0.00  0.00  0.01  0.00
  YS02001910YS02001907    1.00   0.00  0.00  0.00  0.97  0.00  0.00  0.02  0.13  0.00
  YS02001786YS02001788    1.00   0.00  0.00  0.00  0.64  0.36  0.00  0.00  0.00  0.00
  YS02001915YS02001910    1.00   0.00  0.00  0.00  0.99  0.01  0.00  0.00  0.23  0.00
  YS02001918YS02001915    1.00   0.00  0.01  0.00  0.98  0.01  0.00  0.00  0.70  0.00
  YS02001923YS02001920    1.00   0.00  0.00  0.00  1.00  0.00  0.00  0.00  1.00  0.00
  YS02001926YS02001923    1.00   0.00  0.03  0.00  0.00  0.00  0.97  0.00  0.00  0.00
  YS02001929YS02001926    1.00   0.00  0.04  0.00  0.96  0.00  0.00  0.00  0.87  0.00
  YS02001920YS02001918    1.00   0.00  0.01  0.00  0.99  0.00  0.00  0.00  0.00  0.00
  YS02001629YS02163301    1.00   0.06  0.00  0.00  0.94  0.00  0.00  0.00  0.00  0.00
  YS02001619YS02001622    1.00   0.04  0.00  0.00  0.96  0.00  0.00  0.00  0.00  0.00
  YS02001622YS02001625    1.00   0.04  0.00  0.00  0.96  0.00  0.00  0.00  0.12  0.00
  YS02001625YS02001629    1.00   0.04  0.02  0.00  0.92  0.00  0.01  0.00  0.00  0.00
  YS02163301YS02001633    1.00   0.00  0.06  0.00  0.94  0.00  0.00  0.00  0.00  0.00
  YS02163601YS02164001    1.00   0.00  0.03  0.00  0.97  0.00  0.00  0.00  0.00  0.00
  YS02164001YS02001641    1.00   0.01  0.03  0.00  0.97  0.00  0.00  0.00  0.07  0.00
  YS02001641YS02001644    1.00   0.00  0.01  0.00  0.99  0.00  0.00  0.00  0.00  0.00
  YS02001647YS02001649    1.00   0.00  0.06  0.00  0.94  0.00  0.00  0.00  0.01  0.00
  YS02006553YS02006556    1.00   0.01  0.00  0.00  0.99  0.00  0.00  0.00  0.03  0.00
  YS02006556YS02006558    1.00   0.00  0.00  0.00  1.00  0.00  0.00  0.00  0.00  0.00
  YSB6556YSB1171          1.00   0.03  0.01  0.00  0.96  0.00  0.00  0.00  0.00  0.00
  YS02001907YS02006553    1.00   0.00  0.02  0.00  0.98  0.00  0.00  0.00  0.00  0.00
  YS02006558YS02006561    1.00   0.06  0.00  0.00  0.00  0.93  0.00  0.00  0.62  0.00
  YS02001633YS02163601    1.00   0.00  0.01  0.00  0.99  0.00  0.00  0.00  0.19  0.00
  YS02001644YS02001647    1.00   0.00  0.06  0.00  0.94  0.00  0.00  0.00  0.00  0.00
  YS02001745YS02001748    1.00   0.00  0.00  0.00  0.88  0.01  0.00  0.11  0.11  0.00
  YS02001748YS02001751    1.00   0.00  0.00  0.00  0.97  0.03  0.00  0.00  0.23  0.00
  YS02001751YS02001754    1.00   0.00  0.00  0.00  0.93  0.00  0.00  0.07  0.01  0.00
  YS02001754YS02001757    1.00   0.00  0.00  0.00  0.99  0.01  0.00  0.00  0.26  0.00
  YS02001882YS02001884    1.00   0.05  0.00  0.00  0.94  0.00  0.00  0.00  0.00  0.00
  YS02001884YS02001887    1.00   0.03  0.01  0.00  0.96  0.00  0.00  0.00  0.00  0.00
  YS02001890YS02001895    1.00   0.00  0.06  0.00  0.94  0.00  0.00  0.00  0.00  0.00
  YS02001895YS02001898    1.00   0.06  0.00  0.00  0.93  0.00  0.01  0.00  0.00  0.00
  YS02001898YS02001901    1.00   0.06  0.00  0.00  0.94  0.00  0.00  0.00  0.02  0.00
  YS02001901YS02001904    1.00   0.06  0.00  0.00  0.94  0.00  0.00  0.00  0.00  0.00
  YS02001904YS02001907    1.00   0.00  0.05  0.00  0.94  0.00  0.00  0.00  0.00  0.00
  YS02001887YS02001890    1.00   0.00  0.00  0.00  0.97  0.00  0.02  0.00  0.00  0.00
  YS02001652YS02001649    1.00   0.00  0.00  0.00  1.00  0.00  0.00  0.00  0.25  0.00
  YS02001655YS02001652    1.00   0.00  0.00  0.00  0.93  0.00  0.00  0.07  0.02  0.00
  YS02001658YS02001655    1.00   0.00  0.05  0.00  0.92  0.03  0.00  0.00  0.09  0.00
  YS02001661YS02001658    1.00   0.05  0.00  0.00  0.88  0.07  0.00  0.00  0.12  0.00
  YS02001664YS02001661    1.00   0.04  0.00  0.00  0.77  0.19  0.00  0.00  0.48  0.00
  YSB1154YSB6556          1.00   0.04  0.00  0.00  0.96  0.00  0.00  0.00  0.02  0.00
  YSB1174YSB1171          1.00   0.03  0.01  0.00  0.96  0.00  0.00  0.00  0.00  0.00
  YSB1171HS02004479       1.00   0.03  0.00  0.00  0.97  0.00  0.00  0.00  0.13  0.00
  HS02004881HS02006253    1.00   0.03  0.00  0.00  0.91  0.00  0.00  0.06  0.71  0.00
  YS02001793JiankangQianchi    1.00   0.00  0.00  0.00  0.70  0.30  0.00  0.00  0.09  0.00
  YS02001757CaochengTiaoxuchi    1.00   0.00  0.08  0.00  0.92  0.00  0.00  0.00  0.00  0.00
  WSF200WS02003060        1.00   0.00  0.06  0.00  0.94  0.00  0.00  0.00  0.59  0.00
  1                       1.00   0.00  0.00  0.00  0.00  1.00  0.00  0.00  0.60  0.00
  2                       1.00   0.94  0.00  0.00  0.00  0.06  0.00  0.00  0.02  0.00
  3                       1.00   0.68  0.00  0.00  0.00  0.32  0.00  0.00  0.78  0.00
  4                       1.00   1.00  0.00  0.00  0.00  0.00  0.00  0.00  0.00  0.00
  
  
  *************************
  Conduit Surcharge Summary
  *************************
  
  ----------------------------------------------------------------------------
                                                           Hours        Hours 
                         --------- Hours Full --------   Above Full   Capacity
  Conduit                Both Ends  Upstream  Dnstream   Normal Flow   Limited
  ----------------------------------------------------------------------------
  WS02006229WS02006228        1.09      1.14      1.09      1.65         1.09
  WS02006256WS02006235        5.77      5.78      6.55      1.49         0.01
  WS02006249WS02006248        0.01      0.01      0.01      5.54         0.01
  WS02006247WS02006245        0.01      0.01      0.01      5.55         0.01
  WS02006243WS02006242        0.01      0.01      0.20      0.01         0.01
  WS02006242WS02006240        0.01      0.01      0.39      0.01         0.01
  WS02006240WS02006239        0.01      0.01      0.21      0.01         0.01
  WS02006239WS02006238        0.46      0.46      0.58      0.01         0.01
  WS02006238WS02006235        0.55      0.55      0.72      0.01         0.01
  WS02006235WS02006234        0.25      0.25      0.49      5.79         0.01
  WS02006234WS02006232        0.39      0.39      0.87      0.01         0.01
  WS02006232WS02006231        0.01      0.01      0.87      0.01         0.01
  WS02006231WS02006230        0.01      0.01      0.01      5.79         0.01
  WS02006230WS02006229        1.53      1.61      1.53      5.87         1.53
  WS02006228WS02006109        1.12      1.23      1.12      2.49         1.12
  WS02006112WS02006115        0.01      0.01      0.52      0.01         0.01
  WS02006111WS02006112        0.01      0.01      1.68      0.01         0.01
  WS02006110WS02006113        0.01      0.01      1.19      0.01         0.01
  WS02006109WS02006110        0.28      0.28      1.23      0.29         0.01
  WS02004405WS02004406        0.01      0.01      0.01      0.40         0.01
  WS02004404WS02004405        0.01      0.01      0.01      5.66         0.01
  WS02003072WS02003073        0.01      0.01      0.01      5.57         0.01
  YS02001759YS02001757        5.38      5.38      5.46      0.01         0.01
  YS02001762YS02001759        5.35      5.35      5.38      0.01         0.01
  YS02001765YS02001762        5.32      5.32      5.35      0.01         0.01
  YS02001770YS02001767        5.27      5.27      5.28      0.01         0.53
  YS02001774YS02001770        5.23      5.23      5.34      0.01         0.01
  YS02001779YS02001774        4.32      4.32      5.34      0.01         0.01
  YS02001649YS02001757        5.36      5.36      5.46      0.01         0.01
  YS02001767YS02001765        5.28      5.28      5.32      0.01         0.02
  YS02001784YS02001785        0.01      0.01      0.01      0.41         0.01
  YS02001788YS02001790        0.01      0.01      3.65      0.01         0.01
  YS02001790YS02001791        3.65      3.65      3.68      0.01         0.01
  YS02001791YS02001793        3.68      3.68      3.75      0.01         0.01
  YS02001629YS02163301        5.20      5.20      5.26      0.01         0.01
  YS02001619YS02001622        3.57      3.58      3.72      0.01         0.02
  YS02001622YS02001625        3.72      3.72      5.05      0.01         0.01
  YS02001625YS02001629        3.61      3.61      5.05      0.01         0.01
  YS02163301YS02001633        5.26      5.26      5.33      0.01         0.01
  YS02163601YS02164001        5.32      5.32      5.36      0.01         0.01
  YS02164001YS02001641        5.32      5.32      5.33      0.01         0.01
  YS02001641YS02001644        5.33      5.33      5.33      0.01         0.83
  YS02001647YS02001649        4.99      4.99      5.36      0.01         0.01
  YS02001907YS02006553        0.45      0.45      0.78      0.01         0.01
  YS02006558YS02006561        0.01      0.01      0.01      0.12         0.01
  YS02001633YS02163601        5.30      5.30      5.36      0.01         0.01
  YS02001644YS02001647        4.99      4.99      5.33      0.01         0.01
  YS02001748YS02001751        0.85      0.85      3.79      0.01         0.01
  YS02001751YS02001754        3.79      3.79      4.49      0.01         0.01
  YS02001754YS02001757        4.95      4.95      5.46      0.01         0.01
  YS02001652YS02001649        5.03      5.03      5.36      0.01         0.01
  YS02001655YS02001652        3.91      3.91      4.80      0.01         0.01
  YS02001658YS02001655        0.01      0.01      3.91      0.01         0.01
  YS02001661YS02001658        0.01      0.01      0.01      0.01         0.01
  YS02001793JiankangQianchi        3.73      3.73      4.28      0.01         0.01
  YS02001757CaochengTiaoxuchi        2.59      2.59      5.46      0.01         0.01
  
  
  ***************
  Pumping Summary
  ***************
  
  ---------------------------------------------------------------------------------------------------------
                                                  Min       Avg       Max     Total     Power    % Time Off
                        Percent   Number of      Flow      Flow      Flow    Volume     Usage    Pump Curve
  Pump                 Utilized   Start-Ups       LPS       LPS       LPS  10^6 ltr     Kw-hr    Low   High
  ---------------------------------------------------------------------------------------------------------
  CC-Pump-1               57.44           1      0.00    187.66    200.00     3.060      5.02    0.0    0.0
  CC-Pump-2               20.54           2      0.00    169.32    200.00     0.952      3.27    0.0   42.1
  JK-Pump-1               48.94           1      0.00    223.29    300.00     1.663     31.76    0.0    0.0
  JK-Pump-2               25.53           1      0.00    243.27    300.00     1.477     28.83    0.0    0.0
  XR-Pump-1              100.00           1      0.00     95.00     95.00     2.679     41.23    0.0    0.0
  XR-Pump-2               25.52           2      0.00     82.44     95.00     0.570      8.21    0.0    0.0
  XR-Pump-3              100.00           1      0.00     95.00     95.00     2.679     41.23    0.0    0.0
  XR-Pump-4               76.59           1      0.00     94.76     95.00     2.023     33.92    0.0    0.0
  

  Analysis begun on:  Tue Dec 21 18:48:18 2021
  Analysis ended on:  Tue Dec 21 18:48:21 2021
  Total elapsed time: 00:00:03