
  EPA STORM WATER MANAGEMENT MODEL - VERSION 5.1 (Build 5.3.0.dev0)
  --------------------------------------------------------------

  WARNING 04: minimum elevation drop used for Conduit WS02004404WS02004405
  WARNING 03: negative offset ignored for Link YS02001904YS02001907
  
  *********************************************************
  NOTE: The summary statistics displayed in this report are
  based on results found at every computational time step,  
  not just on results from each reporting time step.
  *********************************************************
  
  ****************
  Analysis Options
  ****************
  Flow Units ............... LPS
  Process Models:
    Rainfall/Runoff ........ YES
    RDII ................... NO
    Snowmelt ............... NO
    Groundwater ............ NO
    Flow Routing ........... YES
    Ponding Allowed ........ NO
    Water Quality .......... NO
  Infiltration Method ...... HORTON
  Flow Routing Method ...... DYNWAVE
  Surcharge Method ......... EXTRAN
  Starting Date ............ 08/28/2015 08:00:00
  Ending Date .............. 08/28/2015 15:50:00
  Antecedent Dry Days ...... 8.0
  Report Time Step ......... 00:01:00
  Wet Time Step ............ 00:01:00
  Dry Time Step ............ 00:01:00
  Routing Time Step ........ 5.00 sec
  Variable Time Step ....... YES
  Maximum Trials ........... 8
  Number of Threads ........ 4
  Head Tolerance ........... 0.001500 m
  
  
  **************************        Volume         Depth
  Runoff Quantity Continuity     hectare-m            mm
  **************************     ---------       -------
  Total Precipitation ......         2.372         5.192
  Evaporation Loss .........         0.000         0.000
  Infiltration Loss ........         0.592         1.296
  Surface Runoff ...........         0.926         2.027
  Final Storage ............         0.854         1.870
  Continuity Error (%) .....        -0.018
  
  
  **************************        Volume        Volume
  Flow Routing Continuity        hectare-m      10^6 ltr
  **************************     ---------     ---------
  Dry Weather Inflow .......         0.616         6.165
  Wet Weather Inflow .......         0.925         9.252
  Groundwater Inflow .......         0.000         0.000
  RDII Inflow ..............         0.000         0.000
  External Inflow ..........         0.102         1.024
  External Outflow .........         1.855        18.548
  Flooding Loss ............         0.000         0.000
  Evaporation Loss .........         0.000         0.000
  Exfiltration Loss ........         0.000         0.000
  Initial Stored Volume ....         0.076         0.761
  Final Stored Volume ......         0.192         1.922
  Continuity Error (%) .....       -19.001
  
  
  *************************
  Highest Continuity Errors
  *************************
  Node JK-storage (-90.98%)
  Node HS02004842 (31.24%)
  Node YS02001884 (25.77%)
  Node YSB1171 (8.11%)
  Node YS02001774 (7.55%)
  
  
  ***************************
  Time-Step Critical Elements
  ***************************
  Link WS02006252WS02006251 (53.55%)
  Link 3 (36.32%)
  Link WS02006238WS02006235 (3.96%)
  Link WS02006280WS02006229 (1.88%)
  Link WS02006239WS02006238 (1.04%)
  
  
  ********************************
  Highest Flow Instability Indexes
  ********************************
  Link WS02006113WS02006111 (39)
  Link WS02006111WS02006112 (23)
  Link WS02006110WS02006113 (3)
  Link YS02001754YS02001757 (2)
  Link YS02001762YS02001759 (2)
  
  
  *************************
  Routing Time Step Summary
  *************************
  Minimum Time Step           :     0.28 sec
  Average Time Step           :     0.86 sec
  Maximum Time Step           :     5.00 sec
  Percent in Steady State     :    -0.00
  Average Iterations per Step :     2.01
  Percent Not Converging      :     0.04
  
  
  ***************************
  Subcatchment Runoff Summary
  ***************************
  
  ------------------------------------------------------------------------------------------------------------------------------
                            Total      Total      Total      Total     Imperv       Perv      Total       Total     Peak  Runoff
                           Precip      Runon       Evap      Infil     Runoff     Runoff     Runoff      Runoff   Runoff   Coeff
  Subcatchment                 mm         mm         mm         mm         mm         mm         mm    10^6 ltr      LPS
  ------------------------------------------------------------------------------------------------------------------------------
  sub0                       5.19       0.00       0.00       0.36       3.56       0.00       3.56        0.00     1.15   0.686
  sub1                       5.19       0.00       0.00       0.57       3.37       0.00       3.37        0.02     5.96   0.648
  sub2                       5.19       0.00       0.00       1.92       2.37       0.00       2.37        0.02     5.26   0.456
  sub3                       5.19       0.00       0.00       1.92       2.33       0.00       2.33        0.05    10.80   0.449
  sub4                       5.19       0.00       0.00       0.57       3.23       0.00       3.23        0.07    12.10   0.623
  sub5                       5.19       0.00       0.00       0.36       3.52       0.00       3.52        0.04    10.60   0.678
  sub7                       5.19       0.00       0.00       0.47       3.47       0.00       3.47        0.01     3.76   0.668
  sub8                       5.19       0.00       0.00       0.47       3.46       0.00       3.46        0.02     6.61   0.667
  sub9                       5.19       0.00       0.00       0.47       3.46       0.00       3.46        0.02     4.90   0.666
  sub10                      5.19       0.00       0.00       0.42       3.49       0.00       3.49        0.04    10.59   0.671
  sub11                      5.19       0.00       0.00       0.42       3.50       0.00       3.50        0.04    12.45   0.675
  sub12                      5.19       0.00       0.00       0.67       3.33       0.00       3.33        0.03    10.59   0.641
  sub14                      5.19       0.00       0.00       0.47       3.46       0.00       3.46        0.03     9.57   0.666
  sub15                      5.19       0.00       0.00       1.56       2.66       0.00       2.66        0.05    12.99   0.512
  sub16                      5.19       0.00       0.00       1.71       2.56       0.00       2.56        0.03     9.29   0.493
  sub17                      5.19       0.00       0.00       1.66       2.60       0.00       2.60        0.02     7.50   0.500
  sub22                      5.19       0.00       0.00       2.23       2.17       0.00       2.17        0.14    42.61   0.418
  sub23                      5.19       0.00       0.00       1.92       2.40       0.00       2.40        0.11    36.31   0.463
  sub60                      5.19       0.00       0.00       0.62       2.24       0.00       2.24        0.68    60.68   0.431
  sub61                      5.19       0.00       0.00       0.88       2.42       0.00       2.42        0.75    76.50   0.467
  sub62                      5.19       0.00       0.00       0.42       2.59       0.00       2.59        0.80    78.10   0.499
  sub63                      5.19       0.00       0.00       1.51       2.17       0.00       2.17        0.66    71.50   0.417
  sub64                      5.19       0.00       0.00       0.78       2.14       0.00       2.14        0.65    57.58   0.412
  sub65                      5.19       0.00       0.00       0.67       2.16       0.00       2.16        0.67    58.37   0.416
  sub66                      5.19       0.00       0.00       1.51       1.87       0.00       1.87        0.57    52.94   0.361
  sub67                      5.19       0.00       0.00       0.42       2.88       0.00       2.88        0.89   100.59   0.554
  sub68                      5.19       0.00       0.00       0.73       2.59       0.00       2.59        0.79    84.66   0.498
  sub69                      5.19       0.00       0.00       0.78       2.82       0.00       2.82        0.66    84.40   0.543
  sub70                      5.19       2.88       0.00       2.74       3.38       0.00       3.38        0.77    66.05   0.419
  sub71                      5.19       0.00       0.00       0.42       2.47       0.00       2.47        0.58    54.45   0.475
  sub72                      5.19       0.00       0.00       0.36       1.70       0.00       1.70        0.35    25.19   0.327
  sub73                      5.19       3.29       0.00       2.88       3.38       0.00       3.38        0.79    56.43   0.399
  sub74                      5.19       0.00       0.00       3.89       0.85       0.00       0.85        0.34    47.15   0.164
  
  
  ******************
  Node Depth Summary
  ******************
  
  ---------------------------------------------------------------------------------
                                 Average  Maximum  Maximum  Time of Max    Reported
                                   Depth    Depth      HGL   Occurrence   Max Depth
  Node                 Type       Meters   Meters   Meters  days hr:min      Meters
  ---------------------------------------------------------------------------------
  WS02001211           JUNCTION     0.71     0.79     5.62     0  02:52        0.79
  WS02001212           JUNCTION     0.43     0.50     5.56     0  02:51        0.50
  WS02001213           JUNCTION     0.66     0.74     5.50     0  02:51        0.74
  WS02003069           JUNCTION     0.46     0.55     5.14     0  02:50        0.55
  WS02003072           JUNCTION     0.53     0.61     4.99     0  02:50        0.61
  WS02003073           JUNCTION     0.32     0.38     4.44     0  02:51        0.38
  WS02003060           JUNCTION     0.41     0.49     5.42     0  02:49        0.49
  WS02003066           JUNCTION     0.23     0.28     5.83     0  02:47        0.28
  WS02003059           JUNCTION     0.71     0.79     5.48     0  02:50        0.79
  WS02003067           JUNCTION     0.57     0.67     5.99     0  02:47        0.67
  WS02004401           JUNCTION     0.66     0.79     6.79     0  02:43        0.79
  WS02004402           JUNCTION     0.70     0.82     6.78     0  02:43        0.82
  WS02004403           JUNCTION     0.72     0.84     6.77     0  02:43        0.84
  WS02004404           JUNCTION     0.79     0.91     6.76     0  02:43        0.91
  WS02004406           JUNCTION     0.80     0.91     6.74     0  02:43        0.91
  WS02004409           JUNCTION     0.48     0.61     6.38     0  02:46        0.61
  WS02004410           JUNCTION     0.50     0.63     6.35     0  02:47        0.63
  WS02004411           JUNCTION     0.52     0.64     6.32     0  02:47        0.64
  WS02004412           JUNCTION     0.53     0.65     6.29     0  02:47        0.65
  WS02004413           JUNCTION     0.69     0.82     6.29     0  02:47        0.82
  WS02004405           JUNCTION     0.79     0.91     6.76     0  02:44        0.91
  WS02006109           JUNCTION     0.74     0.88     7.50     0  02:39        0.88
  WS02006110           JUNCTION     0.74     0.86     7.45     0  02:39        0.86
  WS02006111           JUNCTION     0.22     0.27     6.97     0  02:37        0.26
  WS02006112           JUNCTION     0.83     0.98     6.86     0  02:42        0.98
  WS02006113           JUNCTION     0.33     0.42     7.31     0  02:39        0.42
  WS02006115           JUNCTION     0.55     0.69     6.83     0  02:43        0.69
  WS02006116           JUNCTION     0.64     0.77     6.81     0  02:43        0.77
  WS02006230           JUNCTION     0.70     0.90     7.64     0  02:40        0.90
  WS02006231           JUNCTION     0.47     0.58     7.70     0  02:42        0.58
  WS02006232           JUNCTION     0.61     0.72     7.75     0  07:37        0.71
  WS02006234           JUNCTION     0.52     0.65     7.81     0  07:37        0.65
  WS02006235           JUNCTION     0.55     0.69     7.86     0  07:37        0.69
  WS02006238           JUNCTION     0.58     0.73     7.87     0  07:36        0.72
  WS02006240           JUNCTION     0.47     0.66     7.95     0  07:36        0.66
  WS02006242           JUNCTION     0.52     0.73     8.00     0  07:37        0.73
  WS02006243           JUNCTION     0.40     0.63     8.05     0  07:36        0.63
  WS02006245           JUNCTION     0.38     0.60     8.09     0  07:37        0.60
  WS02006247           JUNCTION     0.40     0.62     8.12     0  07:37        0.62
  WS02006248           JUNCTION     0.35     0.56     8.15     0  07:37        0.56
  WS02006249           JUNCTION     0.38     0.59     8.19     0  07:37        0.59
  WS02006239           JUNCTION     0.53     0.71     7.92     0  07:36        0.71
  WS02006251           JUNCTION     0.37     0.61     8.28     0  07:38        0.61
  WS02006252           JUNCTION     0.33     0.58     8.83     0  07:30        0.58
  WS02006253           JUNCTION     0.40     0.64     8.28     0  07:38        0.64
  WS02006256           JUNCTION     1.06     1.18     8.12     0  02:57        1.18
  WS02004138           JUNCTION     0.17     0.19     7.44     0  02:00        0.19
  WS02004407           JUNCTION     0.22     0.27     6.59     0  02:44        0.27
  WS02006228           JUNCTION     0.73     0.90     7.56     0  02:39        0.90
  WS02006229           JUNCTION     0.71     0.89     7.59     0  02:39        0.89
  WS02006280           JUNCTION     0.05     0.13     8.40     0  02:20        0.13
  WS02006284           JUNCTION     0.34     0.46     8.86     0  02:20        0.46
  WS02006287           JUNCTION     0.08     0.19     9.15     0  02:20        0.19
  WSF200               JUNCTION     0.21     0.27     5.50     0  02:47        0.27
  HS02004901           JUNCTION     0.11     0.21    10.04     0  02:18        0.21
  HS02004881           JUNCTION     0.01     0.02     9.05     0  02:19        0.02
  HS02004876           JUNCTION     0.03     0.10     9.13     0  02:19        0.10
  HS02004870           JUNCTION     0.01     0.04     9.32     0  02:20        0.04
  HS02004862           JUNCTION     0.01     0.04     9.42     0  02:21        0.04
  HS02004856           JUNCTION     0.07     0.10     9.53     0  02:20        0.10
  HS02004852           JUNCTION     0.01     0.02     9.53     0  02:21        0.02
  HS02004848           JUNCTION     0.01     0.02     9.62     0  02:19        0.02
  HS02004842           JUNCTION     0.33     0.35     9.62     0  02:19        0.35
  HS02004837           JUNCTION     0.03     0.04     9.62     0  02:19        0.04
  HS02004830           JUNCTION     0.04     0.06     9.53     0  02:20        0.06
  HS02004824           JUNCTION     0.02     0.04     9.44     0  02:23        0.04
  HS02004817           JUNCTION     0.42     0.51     9.36     0  02:20        0.51
  HS02004807           JUNCTION     0.11     0.18     9.35     0  02:20        0.18
  HS02004802           JUNCTION     0.15     0.22     9.35     0  02:20        0.22
  HS02004799           JUNCTION     0.10     0.23     9.44     0  02:18        0.23
  HS02004792           JUNCTION     0.02     0.08     9.61     0  02:17        0.08
  HS02004788           JUNCTION     0.02     0.06     9.96     0  02:19        0.06
  HS02004785           JUNCTION     0.03     0.12    10.02     0  02:18        0.12
  HS02004777           JUNCTION     0.13     0.23    10.03     0  02:18        0.23
  HS02004770           JUNCTION     0.10     0.20    10.04     0  02:18        0.20
  HS02004480           JUNCTION     0.06     0.18     9.42     0  02:19        0.18
  HS02004479           JUNCTION     0.10     0.21     9.42     0  02:19        0.21
  HS02004478           JUNCTION     0.05     0.11     9.34     0  02:20        0.11
  YS02001745           JUNCTION     0.07     0.11     7.62     0  03:01        0.11
  YS02001748           JUNCTION     0.23     0.38     7.46     0  04:11        0.38
  YS02001751           JUNCTION     0.41     0.58     7.46     0  04:10        0.57
  YS02001754           JUNCTION     0.67     0.86     7.47     0  04:20        0.86
  YS02001762           JUNCTION     0.86     1.02     7.42     0  04:38        1.02
  YS02001765           JUNCTION     0.81     0.98     7.43     0  04:13        0.97
  YS02001767           JUNCTION     0.78     0.94     7.43     0  04:28        0.94
  YS02001770           JUNCTION     0.77     0.92     7.42     0  04:48        0.92
  YS02001774           JUNCTION     0.84     1.00     7.42     0  04:43        1.00
  YS02001779           JUNCTION     0.59     0.74     7.43     0  04:37        0.74
  YS02001882           JUNCTION     0.26     0.40     7.12     0  02:57        0.40
  YS02001884           JUNCTION     0.36     0.50     7.12     0  02:56        0.50
  YS02001759           JUNCTION     0.89     1.06     7.42     0  04:38        1.06
  YS02001887           JUNCTION     0.43     0.58     7.12     0  02:56        0.58
  YS02001890           JUNCTION     0.46     0.61     7.12     0  02:57        0.61
  YS02001898           JUNCTION     0.23     0.37     7.10     0  02:58        0.37
  YS02001901           JUNCTION     0.35     0.49     7.10     0  02:58        0.49
  YS02001904           JUNCTION     0.33     0.47     7.10     0  02:58        0.47
  YS02001907           JUNCTION     0.66     0.81     7.10     0  02:57        0.81
  YS02001910           JUNCTION     0.45     0.60     7.10     0  02:57        0.60
  YS02001915           JUNCTION     0.25     0.38     7.10     0  02:58        0.38
  YS02001918           JUNCTION     0.07     0.09     7.15     0  03:03        0.09
  YS02001619           JUNCTION     0.37     0.51     7.44     0  04:40        0.51
  YS02001629           JUNCTION     0.72     0.88     7.43     0  04:42        0.88
  YS02001641           JUNCTION     0.83     1.00     7.44     0  04:45        1.00
  YS02001644           JUNCTION     0.83     1.00     7.43     0  04:42        1.00
  YS02001652           JUNCTION     0.68     0.87     7.46     0  04:26        0.87
  YS02001655           JUNCTION     0.44     0.62     7.47     0  04:30        0.61
  YS02001920           JUNCTION     0.16     0.19     7.20     0  03:03        0.19
  YS02001923           JUNCTION     0.06     0.07     7.33     0  03:02        0.07
  YS02001926           JUNCTION     0.13     0.16     7.61     0  03:02        0.16
  YS02001929           JUNCTION     0.06     0.08     7.77     0  03:01        0.08
  YS02001658           JUNCTION     0.18     0.31     7.46     0  04:37        0.31
  YS02001661           JUNCTION     0.14     0.19     7.59     0  02:48        0.19
  YS02001664           JUNCTION     0.06     0.10     8.03     0  02:48        0.10
  YS02001622           JUNCTION     0.40     0.51     7.42     0  04:47        0.51
  YS02001633           JUNCTION     0.81     0.98     7.43     0  04:30        0.98
  YS02001649           JUNCTION     0.87     1.03     7.42     0  04:33        1.03
  YS02001757           JUNCTION     0.99     1.17     7.43     0  04:45        1.16
  YS02001895           JUNCTION     0.23     0.37     7.11     0  02:57        0.37
  YS02001625           JUNCTION     0.68     0.84     7.44     0  04:33        0.84
  YS02163301           JUNCTION     0.75     0.92     7.43     0  04:39        0.92
  YS02163601           JUNCTION     0.87     1.04     7.43     0  04:13        1.03
  YS02164001           JUNCTION     0.81     0.97     7.43     0  04:12        0.97
  YS02001647           JUNCTION     0.66     0.82     7.43     0  04:31        0.82
  YSB1154              JUNCTION     0.24     0.36     9.42     0  02:19        0.36
  YSB6556              JUNCTION     0.13     0.25     9.42     0  02:18        0.25
  YSB1174              JUNCTION     0.19     0.31     9.42     0  02:19        0.31
  YSB1171              JUNCTION     0.39     0.52     9.42     0  02:18        0.52
  YS02006553           JUNCTION     0.66     0.82     7.10     0  02:58        0.82
  YS02006561           JUNCTION     0.13     0.20     6.86     0  02:58        0.20
  YS02006556           JUNCTION     0.64     0.79     7.10     0  02:58        0.79
  YS02006558           JUNCTION     0.68     0.83     7.10     0  02:58        0.83
  YS02001783           JUNCTION     0.22     0.36     6.50     0  02:58        0.36
  YS02001784           JUNCTION     0.25     0.38     6.45     0  02:58        0.38
  YS02001786           JUNCTION     0.22     0.33     6.36     0  02:59        0.33
  YS02001788           JUNCTION     0.15     0.24     6.22     0  02:59        0.24
  YS02001790           JUNCTION     0.19     0.30     5.94     0  02:59        0.30
  YS02001791           JUNCTION     0.12     0.19     5.66     0  02:59        0.19
  YS02001793           JUNCTION     0.08     0.13     4.96     0  02:59        0.13
  WS02004139           JUNCTION     0.66     0.73     5.64     0  02:52        0.73
  WSC                  OUTFALL      0.32     0.38     1.05     0  02:51        0.38
  3                    OUTFALL      0.09     0.18     6.18     0  02:57        0.18
  4                    OUTFALL      0.00     0.09     7.09     0  07:37        0.09
  5                    OUTFALL      0.00     0.00     5.00     0  00:00        0.00
  JK-storage           STORAGE      0.04     3.00     3.80     0  00:00        2.70
  CC-storage           STORAGE      0.25     0.39     7.39     0  04:57        0.39
  XR-storage           STORAGE      0.97     5.58     3.58     0  01:50        5.58
  
  
  *******************
  Node Inflow Summary
  *******************
  
  -------------------------------------------------------------------------------------------------
                                  Maximum  Maximum                  Lateral       Total        Flow
                                  Lateral    Total  Time of Max      Inflow      Inflow     Balance
                                   Inflow   Inflow   Occurrence      Volume      Volume       Error
  Node                 Type           LPS      LPS  days hr:min    10^6 ltr    10^6 ltr     Percent
  -------------------------------------------------------------------------------------------------
  WS02001211           JUNCTION      7.35   387.88     0  03:21       0.207        8.24       0.459
  WS02001212           JUNCTION      0.00   388.12     0  03:21           0         8.2       0.261
  WS02001213           JUNCTION      0.00   388.36     0  03:20           0        8.18       0.292
  WS02003069           JUNCTION      0.32   864.39     0  02:49     0.00902        15.4       0.222
  WS02003072           JUNCTION      0.00   864.37     0  02:50           0        15.3       0.264
  WS02003073           JUNCTION      1.82   866.20     0  02:51      0.0514        15.3       0.303
  WS02003060           JUNCTION     16.53   864.06     0  02:49       0.466        15.4       0.208
  WS02003066           JUNCTION      0.00   461.26     0  02:47           0        6.81       0.074
  WS02003059           JUNCTION      0.00   388.75     0  03:19           0        8.16       0.498
  WS02003067           JUNCTION      0.00   461.25     0  02:47           0        6.82       0.152
  WS02004401           JUNCTION      0.00   462.87     0  02:41           0        7.08       0.339
  WS02004402           JUNCTION      0.00   462.62     0  02:42           0        7.05       0.316
  WS02004403           JUNCTION      0.00   462.52     0  02:43           0        7.03       0.285
  WS02004404           JUNCTION      0.16   462.60     0  02:43     0.00457        7.02       0.211
  WS02004406           JUNCTION      0.00   462.61     0  02:43           0        6.98       0.515
  WS02004409           JUNCTION      0.00   462.58     0  02:44           0        6.94       0.281
  WS02004410           JUNCTION      0.00   462.03     0  02:45           0        6.92       0.311
  WS02004411           JUNCTION      0.00   461.64     0  02:45           0         6.9       0.315
  WS02004412           JUNCTION      0.00   461.41     0  02:46           0        6.87       0.335
  WS02004413           JUNCTION      0.00   461.29     0  02:47           0        6.85       0.486
  WS02004405           JUNCTION      0.04   462.62     0  02:43     0.00107           7       0.315
  WS02006109           JUNCTION      1.23   461.04     0  02:39      0.0347        7.19       0.313
  WS02006110           JUNCTION      0.00   461.04     0  02:39           0        7.17       0.300
  WS02006111           JUNCTION      0.00   475.08     0  02:39           0        7.14       0.071
  WS02006112           JUNCTION      7.50   466.98     0  02:37      0.0223        7.15       0.441
  WS02006113           JUNCTION      0.00   461.15     0  02:39           0        7.15       0.164
  WS02006115           JUNCTION      0.00   464.12     0  02:40           0        7.12       0.330
  WS02006116           JUNCTION      0.00   463.36     0  02:41           0         7.1       0.309
  WS02006230           JUNCTION     10.28   382.67     0  07:38        0.29        6.41       0.245
  WS02006231           JUNCTION      0.00   372.98     0  07:37           0        6.13       0.214
  WS02006232           JUNCTION      0.00   372.91     0  07:37           0        6.15       0.286
  WS02006234           JUNCTION      0.00   374.22     0  07:36           0        6.16       0.163
  WS02006235           JUNCTION      0.00   377.81     0  07:36           0         6.2       0.197
  WS02006238           JUNCTION      0.00   323.57     0  07:36           0        4.05       0.221
  WS02006240           JUNCTION      0.00   322.99     0  07:31           0        4.05       0.388
  WS02006242           JUNCTION      0.00   326.23     0  07:31           0        4.06       0.461
  WS02006243           JUNCTION      0.00   329.06     0  07:31           0        4.06       0.268
  WS02006245           JUNCTION      0.00   329.85     0  07:31           0        4.07       0.295
  WS02006247           JUNCTION      0.00   332.54     0  07:30           0        4.08       0.256
  WS02006248           JUNCTION      0.00   336.18     0  07:30           0        4.09       0.188
  WS02006249           JUNCTION      0.00   400.58     0  07:39           0         4.2       0.352
  WS02006239           JUNCTION      0.00   321.87     0  07:36           0        4.05       0.358
  WS02006251           JUNCTION      0.08   400.56     0  07:39     0.00217        4.22       0.334
  WS02006252           JUNCTION      0.00   400.00     0  07:30           0        4.09       0.012
  WS02006253           JUNCTION      1.15    32.79     0  02:19     0.00288        0.13       6.695
  WS02006256           JUNCTION      0.00   534.73     0  03:00           0        5.35       0.057
  WS02004138           JUNCTION      0.00   380.00     0  02:00           0        8.06       0.057
  WS02004407           JUNCTION      0.00   462.59     0  02:44           0        6.94       0.126
  WS02006228           JUNCTION      0.00   459.81     0  02:39           0        7.17       0.225
  WS02006229           JUNCTION      0.00   459.87     0  02:38           0        7.19       0.182
  WS02006280           JUNCTION      0.00   171.50     0  02:20           0       0.797       0.009
  WS02006284           JUNCTION      0.10   171.49     0  02:20      0.0027       0.798       0.136
  WS02006287           JUNCTION      0.00   171.41     0  02:20           0       0.796       0.090
  WSF200               JUNCTION      0.00   461.26     0  02:47           0         6.8       0.077
  HS02004901           JUNCTION      9.29     9.29     0  02:11      0.0268      0.0269       6.977
  HS02004881           JUNCTION      3.76    31.91     0  02:19      0.0117       0.122       0.228
  HS02004876           JUNCTION      5.96    28.45     0  02:19      0.0224       0.111       0.475
  HS02004870           JUNCTION      6.61    22.61     0  02:19      0.0221      0.0886       0.120
  HS02004862           JUNCTION      5.46    16.44     0  02:20      0.0277      0.0667       0.253
  HS02004856           JUNCTION      4.90    11.02     0  02:19      0.0166      0.0405       3.679
  HS02004852           JUNCTION      0.00     6.43     0  02:19           0      0.0239       0.209
  HS02004848           JUNCTION     10.80    10.80     0  02:22      0.0525      0.0525       0.082
  HS02004842           JUNCTION      0.00     4.72     0  02:32           0      0.0416      45.437
  HS02004837           JUNCTION     16.94    21.03     0  02:18       0.217       0.246       0.331
  HS02004830           JUNCTION      0.15    21.17     0  02:19     0.00423       0.236       0.524
  HS02004824           JUNCTION     12.15    33.17     0  02:23      0.0688       0.304       0.177
  HS02004817           JUNCTION      0.60    33.76     0  02:23      0.0169        0.32       5.485
  HS02004807           JUNCTION     12.45    45.10     0  02:21      0.0407       0.344       1.242
  HS02004802           JUNCTION      0.00    45.25     0  02:22           0        0.34       1.208
  HS02004799           JUNCTION      9.57   107.58     0  02:17      0.0329       0.406       0.562
  HS02004792           JUNCTION     42.89    98.22     0  02:17       0.145       0.373       0.111
  HS02004788           JUNCTION     14.66    57.19     0  02:18      0.0928       0.229       0.172
  HS02004785           JUNCTION      0.15    42.95     0  02:17     0.00423       0.139       0.348
  HS02004777           JUNCTION      0.03    43.32     0  02:16    0.000846       0.139       3.870
  HS02004770           JUNCTION     36.31    44.48     0  02:14       0.114        0.14       2.269
  HS02004480           JUNCTION      0.00   126.84     0  02:18           0       0.472       0.150
  HS02004479           JUNCTION      0.00    19.65     0  02:20           0      0.0784       0.939
  HS02004478           JUNCTION      0.00   171.41     0  02:20           0       0.797       0.079
  YS02001745           JUNCTION     60.68    60.68     0  03:01       0.678       0.678       0.114
  YS02001748           JUNCTION      0.04   157.13     0  03:59     0.00127       0.944      -0.029
  YS02001751           JUNCTION      0.01   200.34     0  03:19     0.00031       0.946       0.540
  YS02001754           JUNCTION      0.26   182.81     0  03:18     0.00733       0.879       1.395
  YS02001762           JUNCTION      0.00   135.68     0  03:11           0       0.767       2.175
  YS02001765           JUNCTION      0.00   126.55     0  03:07           0       0.763       2.333
  YS02001767           JUNCTION      0.54   120.92     0  03:17      0.0151       0.773       3.249
  YS02001770           JUNCTION     78.26   109.66     0  03:16         0.8       0.923       2.278
  YS02001774           JUNCTION      0.00    42.18     0  03:11           0       0.239       8.162
  YS02001779           JUNCTION      0.01    37.58     0  03:18    0.000141      0.0978       8.176
  YS02001882           JUNCTION      0.00     3.30     0  02:09           0     0.00451      54.448
  YS02001884           JUNCTION      0.00     9.45     0  02:08           0      0.0182      34.710
  YS02001759           JUNCTION     76.54   192.80     0  03:16       0.748        1.49       1.269
  YS02001887           JUNCTION    101.04   101.04     0  02:46         0.9       0.909       0.772
  YS02001890           JUNCTION      0.00   100.43     0  02:47           0       0.887       0.869
  YS02001898           JUNCTION      0.00   100.01     0  02:49           0       0.876       0.235
  YS02001901           JUNCTION      0.00    99.92     0  02:51           0       0.875       0.611
  YS02001904           JUNCTION      0.00    99.58     0  02:53           0       0.874       0.570
  YS02001907           JUNCTION      0.00   181.34     0  03:02           0        1.87       1.179
  YS02001910           JUNCTION      0.00    82.55     0  03:00           0           1       0.999
  YS02001915           JUNCTION     54.47    82.30     0  03:01       0.582        1.01       0.432
  YS02001918           JUNCTION      0.00    28.05     0  03:03           0       0.424       0.241
  YS02001619           JUNCTION     52.94    52.94     0  03:01       0.574       0.574       0.336
  YS02001629           JUNCTION      0.00    91.85     0  04:02           0       0.578       1.550
  YS02001641           JUNCTION      0.00   125.25     0  03:07           0        1.16       1.345
  YS02001644           JUNCTION     57.62   182.67     0  03:16       0.651        1.79       1.060
  YS02001652           JUNCTION      0.00   130.70     0  03:30           0       0.864       1.405
  YS02001655           JUNCTION      0.15   182.80     0  03:25     0.00434       0.885       0.734
  YS02001920           JUNCTION      2.87    28.07     0  03:02      0.0809       0.426       0.452
  YS02001923           JUNCTION      0.04    25.20     0  03:02     0.00106       0.346       0.079
  YS02001926           JUNCTION      0.05    25.23     0  03:01     0.00147       0.347       0.569
  YS02001929           JUNCTION     25.19    25.19     0  03:01       0.345       0.345       0.076
  YS02001658           JUNCTION      0.00   137.80     0  04:08           0       0.881       0.034
  YS02001661           JUNCTION      0.00    71.50     0  02:48           0       0.656       0.106
  YS02001664           JUNCTION     71.50    71.50     0  02:48       0.656       0.656       0.025
  YS02001622           JUNCTION      0.00    69.69     0  04:00           0       0.575       1.088
  YS02001633           JUNCTION     58.57   131.92     0  03:16        0.67         1.2       1.918
  YS02001649           JUNCTION      0.00   325.56     0  03:09           0         2.6       1.101
  YS02001757           JUNCTION      0.00   514.61     0  03:13           0        4.66       1.760
  YS02001895           JUNCTION      0.00   100.14     0  02:50           0       0.879       0.402
  YS02001625           JUNCTION      0.00   104.80     0  04:03           0       0.598       3.455
  YS02163301           JUNCTION      0.00    86.90     0  03:09           0       0.548       2.917
  YS02163601           JUNCTION      0.11   138.48     0  03:23      0.0031        1.17       2.008
  YS02164001           JUNCTION      0.00   134.99     0  03:15           0        1.16       1.248
  YS02001647           JUNCTION      0.00   184.33     0  03:15           0        1.76       0.908
  YSB1154              JUNCTION     10.60    10.60     0  02:16      0.0398      0.0412       3.632
  YSB6556              JUNCTION      0.00    10.59     0  02:18           0      0.0422       3.039
  YSB1174              JUNCTION     10.59    10.59     0  02:11      0.0291      0.0301       4.450
  YSB1171              JUNCTION      0.00    19.63     0  02:17           0      0.0779       8.830
  YS02006553           JUNCTION      0.00   181.64     0  03:02           0        1.85       0.766
  YS02006561           JUNCTION      0.00   266.05     0  02:58           0        2.62       0.023
  YS02006556           JUNCTION      0.00   181.86     0  03:02           0        1.86       0.551
  YS02006558           JUNCTION     85.54   266.05     0  02:58       0.819        2.65       0.168
  YS02001783           JUNCTION      0.00   266.04     0  02:58           0        2.62       0.054
  YS02001784           JUNCTION      1.06   267.10     0  02:58      0.0299        2.65       0.090
  YS02001786           JUNCTION      0.06   267.15     0  02:59     0.00159        2.65       0.087
  YS02001788           JUNCTION      0.07   267.22     0  02:59       0.002        2.65       0.050
  YS02001790           JUNCTION      0.15   267.37     0  02:59     0.00437        2.65       0.063
  YS02001791           JUNCTION      0.00   267.36     0  02:59           0        2.65       0.031
  YS02001793           JUNCTION      0.00   267.36     0  02:59           0        2.65       0.014
  WS02004139           JUNCTION      0.32   380.32     0  02:00     0.00905        8.07       0.476
  WSC                  OUTFALL       0.00   866.20     0  02:51           0        15.3       0.000
  3                    OUTFALL       0.00   425.99     0  02:57           0        3.17       0.000
  4                    OUTFALL       0.00    80.01     0  07:37           0      0.0961       0.000
  5                    OUTFALL       0.00     0.00     0  00:00           0           0       0.000 ltr
  JK-storage           STORAGE       0.00   267.36     0  03:00           0         2.8     -47.638
  CC-storage           STORAGE       0.00   439.29     0  03:06           0        4.38       0.111
  XR-storage           STORAGE     298.58   298.58     0  02:58        6.77        7.37      -8.555
  
  
  **********************
  Node Surcharge Summary
  **********************
  
  Surcharging occurs when water rises above the top of the highest conduit.
  ---------------------------------------------------------------------
                                               Max. Height   Min. Depth
                                   Hours       Above Crown    Below Rim
  Node                 Type      Surcharged         Meters       Meters
  ---------------------------------------------------------------------
  WS02006109           JUNCTION        0.76          0.065        1.755
  WS02006232           JUNCTION        0.68          0.016        1.464
  WS02006238           JUNCTION        0.02          0.009        1.421
  WS02006242           JUNCTION        0.23          0.002        0.818
  WS02006252           JUNCTION        0.46          0.184        0.916
  WS02006228           JUNCTION        0.73          0.074        2.126
  YS02001762           JUNCTION        1.18          0.022        1.128
  YS02001759           JUNCTION        2.13          0.057        1.153
  YS02001644           JUNCTION        0.01          0.003        0.917
  YS02001649           JUNCTION        1.54          0.033        1.017
  YS02001757           JUNCTION        4.57          0.166        1.044
  YS02163601           JUNCTION        1.32          0.036        1.044
  
  
  *********************
  Node Flooding Summary
  *********************
  
  No nodes were flooded.
  
  
  **********************
  Storage Volume Summary
  **********************
  
  --------------------------------------------------------------------------------------------------
                         Average     Avg  Evap Exfil       Maximum     Max    Time of Max    Maximum
                          Volume    Pcnt  Pcnt  Pcnt        Volume    Pcnt     Occurrence    Outflow
  Storage Unit           1000 m3    Full  Loss  Loss       1000 m3    Full    days hr:min        LPS
  --------------------------------------------------------------------------------------------------
  JK-storage               0.002       1     0     0         0.151      52       0  00:00     534.73
  CC-storage               0.687       4     0     0         1.097       7       0  04:57     400.00
  XR-storage               0.116      13     0     0         0.670      72       0  01:50     380.00
  
  
  ***********************
  Outfall Loading Summary
  ***********************
  
  -----------------------------------------------------------
                         Flow       Avg       Max       Total
                         Freq      Flow      Flow      Volume
  Outfall Node           Pcnt       LPS       LPS    10^6 ltr
  -----------------------------------------------------------
  WSC                   99.99    641.47    866.20      15.286
  3                     90.18    172.00    425.99       3.166
  4                      5.31     67.28     80.01       0.096
  5                      0.00      0.00      0.00       0.000
  -----------------------------------------------------------
  System                48.87    880.75   1290.06      18.548
  
  
  ********************
  Link Flow Summary
  ********************
  
  -----------------------------------------------------------------------------
                                 Maximum  Time of Max   Maximum    Max/    Max/
                                  |Flow|   Occurrence   |Veloc|    Full    Full
  Link                 Type          LPS  days hr:min     m/sec    Flow   Depth
  -----------------------------------------------------------------------------
  WS02003066WSF200     CONDUIT    461.26     0  02:47      2.72    0.08    0.21
  WS02006287WS02006284 CONDUIT    171.40     0  02:20      1.52    0.08    0.20
  WS02006284WS02006280 CONDUIT    171.50     0  02:20      1.77    0.07    0.18
  WS02006280WS02006229 CONDUIT    171.50     0  02:20      2.83    0.04    0.13
  WS02006229WS02006228 CONDUIT    459.81     0  02:39      0.91    1.52    1.00
  WS02006256WS02006235 CONDUIT    166.25     0  00:01      2.58    1.76    1.00
  WS02006253WS02006251 CONDUIT     32.80     0  02:21      0.45    0.10    0.88
  WS02006252WS02006251 CONDUIT    400.09     0  07:30      3.18    1.47    1.00
  WS02006251WS02006249 CONDUIT    400.58     0  07:39      1.15    1.16    0.86
  WS02006249WS02006248 CONDUIT    336.18     0  07:30      1.08    1.84    0.81
  WS02006248WS02006247 CONDUIT    332.54     0  07:30      1.03    0.72    0.84
  WS02006247WS02006245 CONDUIT    329.85     0  07:31      0.99    2.62    0.87
  WS02006245WS02006243 CONDUIT    329.06     0  07:31      0.99    0.97    0.87
  WS02006243WS02006242 CONDUIT    326.23     0  07:31      0.89    0.70    0.95
  WS02006242WS02006240 CONDUIT    322.99     0  07:31      0.86    1.28    0.96
  WS02006240WS02006239 CONDUIT    321.87     0  07:36      0.87    1.01    0.95
  WS02006239WS02006238 CONDUIT    323.57     0  07:36      0.84    1.04    1.00
  WS02006238WS02006235 CONDUIT    325.58     0  07:36      1.25    0.73    0.99
  WS02006235WS02006234 CONDUIT    374.22     0  07:36      1.00    3.95    0.94
  WS02006234WS02006232 CONDUIT    372.91     0  07:37      1.13    0.75    0.97
  WS02006232WS02006231 CONDUIT    372.98     0  07:37      1.03    0.78    0.91
  WS02006231WS02006230 CONDUIT    372.39     0  07:38      1.32    5.65    0.78
  WS02006230WS02006229 CONDUIT    382.47     0  07:39      0.99    8.51    1.00
  WS02006228WS02006109 CONDUIT    459.81     0  02:39      0.91    2.01    1.00
  WS02006116WS02004401 CONDUIT    462.87     0  02:41      0.73    0.64    0.78
  WS02006115WS02006116 CONDUIT    463.36     0  02:41      0.80    0.59    0.70
  WS02006113WS02006111 CONDUIT    475.08     0  02:39      2.33    0.57    0.43
  WS02006112WS02006115 CONDUIT    464.12     0  02:40      0.67    0.27    0.83
  WS02006111WS02006112 CONDUIT    462.95     0  02:37      1.32    0.22    0.66
  WS02006110WS02006113 CONDUIT    461.15     0  02:39      1.12    0.42    0.76
  WS02006109WS02006110 CONDUIT    461.04     0  02:39      0.93    0.89    0.97
  WS02004411WS02004412 CONDUIT    461.41     0  02:46      0.86    0.66    0.65
  WS02004401WS02004402 CONDUIT    462.62     0  02:42      0.77    0.56    0.81
  WS02004413WS02003067 CONDUIT    461.25     0  02:47      1.02    0.20    0.56
  WS02004412WS02004413 CONDUIT    461.29     0  02:47      0.75    0.31    0.73
  WS02004410WS02004411 CONDUIT    461.64     0  02:45      0.88    0.63    0.64
  WS02004409WS02004410 CONDUIT    462.03     0  02:45      0.91    0.60    0.62
  WS02004407WS02004409 CONDUIT    462.58     0  02:44      1.39    0.16    0.44
  WS02004406WS02004407 CONDUIT    462.59     0  02:44      0.95    0.21    0.59
  WS02004405WS02004406 CONDUIT    462.61     0  02:43      0.66    0.91    0.91
  WS02004404WS02004405 CONDUIT    462.59     0  02:43      0.84    4.53    0.91
  WS02004403WS02004404 CONDUIT    462.44     0  02:43      0.74    0.33    0.88
  WS02004402WS02004403 CONDUIT    462.52     0  02:43      0.75    0.66    0.83
  WS02004139WS02001211 CONDUIT    380.53     0  03:21      0.69    0.48    0.59
  WS02004138WS02004139 CONDUIT    380.00     0  02:00      2.94    0.08    0.44
  WS02003067WS02003066 CONDUIT    461.26     0  02:47      1.11    0.15    0.40
  WS02001213WS02003059 CONDUIT    388.75     0  03:19      0.68    0.64    0.76
  WS02001212WS02001213 CONDUIT    388.36     0  03:20      1.32    0.60    0.46
  WS02001211WS02001212 CONDUIT    388.12     0  03:21      0.78    0.30    0.64
  WS02003072WS02003073 CONDUIT    864.38     0  02:51      1.68    1.87    0.47
  WS02003069WS02003072 CONDUIT    864.37     0  02:50      1.58    0.42    0.49
  WS02003060WS02003069 CONDUIT    864.07     0  02:49      1.83    0.34    0.44
  WS02003059WS02003060 CONDUIT    389.29     0  03:19      0.93    0.25    0.64
  HS02004901HS02004770 CONDUIT      8.47     0  02:17      0.04    0.03    0.30
  HS02004876HS02004881 CONDUIT     28.49     0  02:20      0.49    0.30    0.08
  HS02004870HS02004876 CONDUIT     22.59     0  02:20      0.34    0.01    0.09
  HS02004842HS02004848 CONDUIT      4.72     0  02:32      0.03    0.00    0.27
  HS02004837HS02004842 CONDUIT      4.87     0  02:33      0.41    0.00    0.28
  HS02004830HS02004837 CONDUIT     21.02     0  02:19      0.42    0.02    0.07
  HS02004824HS02004830 CONDUIT     21.16     0  02:20      0.46    0.03    0.07
  HS02004817HS02004824 CONDUIT     33.16     0  02:23      0.17    0.01    0.39
  HS02004770HS02004777 CONDUIT     43.29     0  02:16      0.20    0.08    0.31
  HS02004799HS02004480 CONDUIT    107.40     0  02:18      0.54    0.14    0.28
  HS02004792HS02004799 CONDUIT     98.18     0  02:17      0.62    0.06    0.23
  HS02004788HS02004792 CONDUIT     57.14     0  02:19      0.78    0.04    0.11
  HS02004785HS02004788 CONDUIT     42.82     0  02:19      0.47    0.32    0.13
  HS02004777HS02004785 CONDUIT     42.80     0  02:17      0.24    0.05    0.25
  HS02004480HS02004478 CONDUIT    126.82     0  02:19      0.89    0.53    0.20
  HS02004479HS02004480 CONDUIT     19.81     0  02:21      0.16    0.02    0.28
  HS02004862HS02004870 CONDUIT     16.40     0  02:21      0.43    0.02    0.05
  HS02004848HS02004852 CONDUIT      6.43     0  02:19      0.28    0.01    0.03
  HS02004856HS02004862 CONDUIT     10.99     0  02:20      0.31    0.01    0.05
  HS02004852HS02004856 CONDUIT      6.40     0  02:21      0.10    0.01    0.09
  HS02004802HS02004478 CONDUIT     45.49     0  02:23      0.28    0.04    0.24
  HS02004478WS02006287 CONDUIT    171.41     0  02:20      1.22    0.05    0.16
  HS02004817HS02004807 CONDUIT     34.14     0  02:25      0.10    0.02    0.49
  HS02004807HS02004802 CONDUIT     45.25     0  02:22      0.23    0.09    0.28
  YS02001759YS02001757 CONDUIT    202.38     0  03:13      0.26    0.14    1.00
  YS02001762YS02001759 CONDUIT    127.56     0  03:16      0.18    0.15    1.00
  YS02001765YS02001762 CONDUIT    135.68     0  03:11      0.23    0.13    0.99
  YS02001770YS02001767 CONDUIT    120.38     0  03:17      0.31    0.48    0.93
  YS02001774YS02001770 CONDUIT     41.53     0  04:14      0.13    0.03    0.94
  YS02001779YS02001774 CONDUIT     42.18     0  03:11      0.08    0.02    0.87
  YS02001649YS02001757 CONDUIT    335.09     0  03:15      0.43    0.20    1.00
  YS02001767YS02001765 CONDUIT    126.55     0  03:07      0.25    0.16    0.96
  YS02006561YS02001783 CONDUIT    266.04     0  02:58      1.71    0.14    0.35
  YS02001783YS02001784 CONDUIT    266.04     0  02:58      1.17    0.37    0.46
  YS02001784YS02001785 CONDUIT    267.09     0  02:59      1.24    0.62    0.44
  YS02001788YS02001790 CONDUIT    267.21     0  02:59      1.80    0.20    0.34
  YS02001790YS02001791 CONDUIT    267.36     0  02:59      2.07    0.29    0.30
  YS02001791YS02001793 CONDUIT    267.36     0  02:59      3.76    0.11    0.20
  YS02001910YS02001907 CONDUIT     82.63     0  03:01      0.49    0.05    0.70
  YS02001786YS02001788 CONDUIT    267.14     0  02:59      1.66    0.51    0.36
  YS02001915YS02001910 CONDUIT     82.55     0  03:00      0.44    0.04    0.49
  YS02001918YS02001915 CONDUIT     28.03     0  03:03      0.44    0.02    0.23
  YS02001923YS02001920 CONDUIT     25.20     0  03:02      0.41    0.01    0.13
  YS02001926YS02001923 CONDUIT     25.16     0  03:02      0.45    0.04    0.12
  YS02001929YS02001926 CONDUIT     25.17     0  03:01      0.48    0.01    0.12
  YS02001920YS02001918 CONDUIT     28.05     0  03:03      0.43    0.03    0.14
  YS02001629YS02163301 CONDUIT     86.90     0  03:09      0.13    0.11    0.90
  YS02001619YS02001622 CONDUIT     69.69     0  04:00      0.62    0.10    0.51
  YS02001622YS02001625 CONDUIT     76.15     0  04:00      0.23    0.04    0.67
  YS02001625YS02001629 CONDUIT     91.85     0  04:02      0.23    0.04    0.66
  YS02163301YS02001633 CONDUIT     79.24     0  03:16      0.11    0.07    0.95
  YS02163601YS02164001 CONDUIT    134.99     0  03:15      0.18    0.12    0.99
  YS02164001YS02001641 CONDUIT    125.25     0  03:07      0.17    0.17    0.99
  YS02001641YS02001644 CONDUIT    130.75     0  03:16      0.17    0.42    1.00
  YS02001647YS02001649 CONDUIT    202.21     0  03:10      0.29    0.11    0.91
  YS02006553YS02006556 CONDUIT    181.86     0  03:02      0.28    0.16    0.78
  YS02006556YS02006558 CONDUIT    182.03     0  03:03      0.27    0.14    0.81
  YSB6556YSB1171       CONDUIT     10.69     0  02:22      0.05    0.01    0.55
  YS02001907YS02006553 CONDUIT    181.64     0  03:02      0.23    0.21    0.89
  YS02006558YS02006561 CONDUIT    266.05     0  02:58      2.20    0.59    0.44
  YS02001633YS02163601 CONDUIT    138.37     0  03:23      0.19    0.15    0.98
  YS02001644YS02001647 CONDUIT    184.33     0  03:15      0.27    0.11    0.91
  YS02001745YS02001748 CONDUIT     60.68     0  03:01      1.35    0.02    0.19
  YS02001748YS02001751 CONDUIT    200.33     0  03:19      1.04    0.10    0.44
  YS02001751YS02001754 CONDUIT     95.65     0  03:03      0.93    0.05    0.69
  YS02001754YS02001757 CONDUIT    205.24     0  03:15      0.33    0.08    0.93
  YS02001882YS02001884 CONDUIT      3.30     0  02:09      0.06    0.00    0.42
  YS02001884YS02001887 CONDUIT      9.45     0  02:08      0.05    0.01    0.52
  YS02001890YS02001895 CONDUIT    100.14     0  02:50      0.26    0.05    0.49
  YS02001895YS02001898 CONDUIT    100.01     0  02:49      0.46    0.17    0.35
  YS02001898YS02001901 CONDUIT     99.92     0  02:51      0.31    0.06    0.43
  YS02001901YS02001904 CONDUIT     99.58     0  02:53      0.27    0.15    0.48
  YS02001904YS02001907 CONDUIT     99.63     0  02:54      0.19    0.03    0.64
  YS02001887YS02001890 CONDUIT    100.43     0  02:47      0.22    0.17    0.57
  YS02001652YS02001649 CONDUIT    177.46     0  03:15      0.30    0.09    0.93
  YS02001655YS02001652 CONDUIT    104.53     0  03:07      1.00    0.05    0.72
  YS02001658YS02001655 CONDUIT    182.65     0  03:25      1.20    0.08    0.42
  YS02001661YS02001658 CONDUIT     71.50     0  02:48      1.38    0.03    0.20
  YS02001664YS02001661 CONDUIT     71.50     0  02:48      1.02    0.02    0.14
  YSB1154YSB6556       CONDUIT     10.59     0  02:18      0.19    0.02    0.44
  YSB1174YSB1171       CONDUIT      9.83     0  02:12      0.05    0.02    0.56
  YSB1171HS02004479    CONDUIT     19.65     0  02:20      0.54    0.01    0.43
  HS02004881HS02006253 CONDUIT     31.91     0  02:19      1.54    0.01    0.21
  YS02001793JiankangQianchi CONDUIT    267.36     0  03:00     12.59    0.02    0.50
  YS02001757CaochengTiaoxuchi CONDUIT    439.29     0  03:06      0.97    0.19    0.70
  WSF200WS02003060     CONDUIT    461.31     0  02:47      1.50    0.10    0.32
  1                    CONDUIT    866.20     0  02:51      3.20    0.30    0.38
  2                    CONDUIT     80.01     0  07:37      4.55    0.19    0.30
  3                    CONDUIT    425.99     0  02:57      9.47    0.68    0.61
  4                    CONDUIT      0.00     0  00:00      0.00    0.00    0.00
  CC-Pump-1            PUMP       200.00     0  04:10              1.00
  CC-Pump-2            PUMP       200.00     0  02:27              1.00
  JK-Pump-1            PUMP       300.00     0  00:00              1.00
  JK-Pump-2            PUMP       267.36     0  03:00              0.89
  XR-Pump-1            PUMP        95.00     0  00:00              1.00
  XR-Pump-2            PUMP        95.00     0  02:00              1.00
  XR-Pump-3            PUMP        95.00     0  00:00              1.00
  XR-Pump-4            PUMP        95.00     0  02:00              1.00
  
  
  ***************************
  Flow Classification Summary
  ***************************
  
  -------------------------------------------------------------------------------------
                      Adjusted    ---------- Fraction of Time in Flow Class ---------- 
                       /Actual         Up    Down  Sub   Sup   Up    Down  Norm  Inlet 
  Conduit               Length    Dry  Dry   Dry   Crit  Crit  Crit  Crit  Ltd   Ctrl  
  -------------------------------------------------------------------------------------
  WS02003066WSF200        1.00   0.06  0.00  0.00  0.00  0.94  0.00  0.00  0.76  0.00
  WS02006287WS02006284    1.00   0.04  0.01  0.00  0.69  0.26  0.00  0.00  0.78  0.00
  WS02006284WS02006280    1.00   0.05  0.00  0.00  0.00  0.00  0.00  0.95  0.00  0.00
  WS02006280WS02006229    1.00   0.05  0.00  0.00  0.00  0.00  0.00  0.95  0.00  0.00
  WS02006229WS02006228    1.00   0.00  0.00  0.00  0.99  0.00  0.00  0.01  0.00  0.00
  WS02006256WS02006235    1.00   0.00  0.00  0.00  1.00  0.00  0.00  0.00  0.00  0.00
  WS02006253WS02006251    1.00   0.03  0.01  0.00  0.96  0.00  0.00  0.00  0.00  0.00
  WS02006252WS02006251    1.00   0.09  0.00  0.00  0.00  0.00  0.91  0.00  0.00  0.00
  WS02006251WS02006249    1.00   0.00  0.00  0.00  1.00  0.00  0.00  0.00  0.28  0.00
  WS02006249WS02006248    1.00   0.00  0.02  0.00  0.90  0.00  0.08  0.00  0.00  0.00
  WS02006248WS02006247    1.00   0.02  0.00  0.00  0.98  0.00  0.00  0.00  0.17  0.00
  WS02006247WS02006245    1.00   0.02  0.00  0.00  0.98  0.00  0.00  0.00  0.00  0.00
  WS02006245WS02006243    1.00   0.01  0.00  0.00  0.94  0.00  0.00  0.04  0.01  0.00
  WS02006243WS02006242    1.00   0.01  0.00  0.00  0.99  0.00  0.00  0.00  0.26  0.00
  WS02006242WS02006240    1.00   0.00  0.00  0.00  1.00  0.00  0.00  0.00  0.00  0.00
  WS02006240WS02006239    1.00   0.00  0.00  0.00  0.95  0.00  0.00  0.04  0.01  0.00
  WS02006239WS02006238    1.00   0.00  0.00  0.00  1.00  0.00  0.00  0.00  0.00  0.00
  WS02006238WS02006235    1.00   0.00  0.00  0.00  1.00  0.00  0.00  0.00  0.00  0.00
  WS02006235WS02006234    1.00   0.00  0.00  0.00  0.95  0.00  0.05  0.00  0.00  0.00
  WS02006234WS02006232    1.00   0.00  0.00  0.00  1.00  0.00  0.00  0.00  0.16  0.00
  WS02006232WS02006231    1.00   0.00  0.00  0.00  0.99  0.00  0.00  0.00  0.00  0.00
  WS02006231WS02006230    1.00   0.00  0.00  0.00  0.36  0.00  0.64  0.00  0.00  0.00
  WS02006230WS02006229    1.00   0.00  0.00  0.00  0.98  0.00  0.00  0.02  0.01  0.00
  WS02006228WS02006109    1.00   0.00  0.00  0.00  1.00  0.00  0.00  0.00  0.00  0.00
  WS02006116WS02004401    1.00   0.03  0.00  0.00  0.97  0.00  0.00  0.00  0.00  0.00
  WS02006115WS02006116    1.00   0.03  0.00  0.00  0.97  0.00  0.00  0.01  0.00  0.00
  WS02006113WS02006111    1.00   0.02  0.00  0.00  0.00  0.98  0.00  0.00  0.10  0.00
  WS02006112WS02006115    1.00   0.02  0.00  0.00  0.97  0.00  0.00  0.00  0.00  0.00
  WS02006111WS02006112    1.00   0.02  0.00  0.00  0.97  0.00  0.00  0.00  0.98  0.00
  WS02006110WS02006113    1.00   0.01  0.01  0.00  0.98  0.00  0.00  0.00  0.00  0.00
  WS02006109WS02006110    1.00   0.00  0.01  0.00  0.98  0.00  0.01  0.00  0.00  0.00
  WS02004411WS02004412    1.00   0.04  0.00  0.00  0.96  0.00  0.00  0.00  0.00  0.00
  WS02004401WS02004402    1.00   0.03  0.00  0.00  0.97  0.00  0.00  0.00  0.00  0.00
  WS02004413WS02003067    1.00   0.04  0.01  0.00  0.00  0.00  0.94  0.00  0.00  0.00
  WS02004412WS02004413    1.00   0.04  0.00  0.00  0.96  0.00  0.00  0.00  0.03  0.00
  WS02004410WS02004411    1.00   0.04  0.00  0.00  0.96  0.00  0.00  0.00  0.04  0.00
  WS02004409WS02004410    1.00   0.04  0.00  0.00  0.96  0.00  0.00  0.00  0.04  0.00
  WS02004407WS02004409    1.00   0.04  0.00  0.00  0.96  0.00  0.00  0.00  0.89  0.00
  WS02004406WS02004407    1.00   0.00  0.04  0.00  0.96  0.00  0.00  0.00  0.00  0.00
  WS02004405WS02004406    1.00   0.00  0.00  0.00  1.00  0.00  0.00  0.00  0.00  0.00
  WS02004404WS02004405    1.00   0.00  0.00  0.00  1.00  0.00  0.00  0.00  0.00  0.00
  WS02004403WS02004404    1.00   0.00  0.03  0.00  0.97  0.00  0.00  0.00  0.01  0.00
  WS02004402WS02004403    1.00   0.03  0.00  0.00  0.97  0.00  0.00  0.00  0.00  0.00
  WS02004139WS02001211    1.00   0.00  0.00  0.00  1.00  0.00  0.00  0.00  0.00  0.00
  WS02004138WS02004139    1.00   0.00  0.00  0.00  0.99  0.01  0.00  0.00  1.00  0.00
  WS02003067WS02003066    1.00   0.06  0.00  0.00  0.94  0.00  0.00  0.00  0.00  0.00
  WS02001213WS02003059    1.00   0.00  0.00  0.00  0.99  0.00  0.00  0.00  0.00  0.00
  WS02001212WS02001213    1.00   0.00  0.00  0.00  0.93  0.00  0.07  0.00  0.00  0.00
  WS02001211WS02001212    1.00   0.00  0.00  0.00  1.00  0.00  0.00  0.00  0.00  0.00
  WS02003072WS02003073    1.00   0.00  0.00  0.00  0.00  0.00  0.00  1.00  0.00  0.00
  WS02003069WS02003072    1.00   0.00  0.00  0.00  0.99  0.01  0.00  0.00  0.23  0.00
  WS02003060WS02003069    1.00   0.00  0.00  0.00  0.99  0.01  0.00  0.00  0.20  0.00
  WS02003059WS02003060    1.00   0.00  0.00  0.00  1.00  0.00  0.00  0.00  0.01  0.00
  HS02004901HS02004770    1.00   0.04  0.00  0.00  0.96  0.00  0.00  0.00  0.02  0.00
  HS02004876HS02004881    1.00   0.02  0.00  0.00  0.98  0.00  0.00  0.00  0.00  0.00
  HS02004870HS02004876    1.00   0.01  0.00  0.00  0.99  0.00  0.00  0.00  0.95  0.00
  HS02004842HS02004848    1.00   0.00  0.05  0.00  0.95  0.00  0.00  0.00  0.69  0.00
  HS02004837HS02004842    1.00   0.00  0.00  0.00  0.99  0.01  0.00  0.00  0.11  0.00
  HS02004830HS02004837    1.00   0.00  0.00  0.00  1.00  0.00  0.00  0.00  0.99  0.00
  HS02004824HS02004830    1.00   0.00  0.00  0.00  1.00  0.00  0.00  0.00  0.00  0.00
  HS02004817HS02004824    1.00   0.00  0.00  0.00  1.00  0.00  0.00  0.00  1.00  0.00
  HS02004770HS02004777    1.00   0.00  0.04  0.00  0.96  0.00  0.00  0.00  0.07  0.00
  HS02004799HS02004480    1.00   0.00  0.02  0.00  0.94  0.00  0.03  0.00  0.00  0.00
  HS02004792HS02004799    1.00   0.00  0.00  0.00  0.99  0.01  0.00  0.00  0.98  0.00
  HS02004788HS02004792    1.00   0.00  0.00  0.00  0.99  0.01  0.00  0.00  0.98  0.00
  HS02004785HS02004788    1.00   0.00  0.00  0.00  1.00  0.00  0.00  0.00  0.00  0.00
  HS02004777HS02004785    1.00   0.00  0.00  0.00  1.00  0.00  0.00  0.00  0.21  0.00
  HS02004480HS02004478    1.00   0.05  0.00  0.00  0.72  0.00  0.00  0.23  0.00  0.00
  HS02004479HS02004480    1.00   0.03  0.00  0.00  0.97  0.00  0.00  0.00  0.16  0.00
  HS02004862HS02004870    1.00   0.00  0.00  0.00  1.00  0.00  0.00  0.00  0.06  0.00
  HS02004848HS02004852    1.00   0.05  0.00  0.00  0.95  0.00  0.00  0.00  0.70  0.00
  HS02004856HS02004862    1.00   0.00  0.07  0.00  0.93  0.00  0.00  0.00  0.74  0.00
  HS02004852HS02004856    1.00   0.04  0.01  0.00  0.95  0.00  0.00  0.00  0.83  0.00
  HS02004802HS02004478    1.00   0.05  0.01  0.00  0.95  0.00  0.00  0.00  0.01  0.00
  HS02004478WS02006287    1.00   0.05  0.00  0.00  0.90  0.05  0.00  0.00  0.81  0.00
  HS02004817HS02004807    1.00   0.00  0.05  0.00  0.95  0.00  0.00  0.00  0.00  0.00
  HS02004807HS02004802    1.00   0.05  0.00  0.00  0.95  0.00  0.00  0.00  0.01  0.00
  YS02001759YS02001757    1.00   0.00  0.00  0.00  1.00  0.00  0.00  0.00  0.17  0.00
  YS02001762YS02001759    1.00   0.00  0.00  0.00  1.00  0.00  0.00  0.00  0.04  0.00
  YS02001765YS02001762    1.00   0.00  0.00  0.00  1.00  0.00  0.00  0.00  0.22  0.00
  YS02001770YS02001767    1.00   0.00  0.00  0.00  1.00  0.00  0.00  0.00  0.00  0.00
  YS02001774YS02001770    1.00   0.00  0.05  0.00  0.95  0.00  0.00  0.00  0.07  0.00
  YS02001779YS02001774    1.00   0.00  0.00  0.00  1.00  0.00  0.00  0.00  0.27  0.00
  YS02001649YS02001757    1.00   0.00  0.00  0.00  1.00  0.00  0.00  0.00  0.19  0.00
  YS02001767YS02001765    1.00   0.00  0.00  0.00  1.00  0.00  0.00  0.00  0.01  0.00
  YS02006561YS02001783    1.00   0.07  0.00  0.00  0.00  0.93  0.00  0.00  0.73  0.00
  YS02001783YS02001784    1.00   0.00  0.07  0.00  0.93  0.00  0.00  0.00  0.00  0.00
  YS02001784YS02001785    1.00   0.00  0.00  0.00  1.00  0.00  0.00  0.00  0.25  0.00
  YS02001788YS02001790    1.00   0.00  0.00  0.00  0.07  0.93  0.00  0.00  0.81  0.00
  YS02001790YS02001791    1.00   0.00  0.00  0.00  0.02  0.98  0.00  0.00  0.49  0.00
  YS02001791YS02001793    1.00   0.00  0.00  0.00  0.00  1.00  0.00  0.00  0.00  0.00
  YS02001910YS02001907    1.00   0.00  0.00  0.00  0.97  0.00  0.00  0.02  0.13  0.00
  YS02001786YS02001788    1.00   0.00  0.00  0.00  0.07  0.93  0.00  0.00  0.00  0.00
  YS02001915YS02001910    1.00   0.00  0.00  0.00  0.99  0.01  0.00  0.00  0.24  0.00
  YS02001918YS02001915    1.00   0.00  0.01  0.00  0.98  0.01  0.00  0.00  0.82  0.00
  YS02001923YS02001920    1.00   0.00  0.00  0.00  1.00  0.00  0.00  0.00  1.00  0.00
  YS02001926YS02001923    1.00   0.00  0.03  0.00  0.00  0.00  0.97  0.00  0.00  0.00
  YS02001929YS02001926    1.00   0.00  0.04  0.00  0.96  0.00  0.00  0.00  0.87  0.00
  YS02001920YS02001918    1.00   0.00  0.01  0.00  0.99  0.00  0.00  0.00  0.00  0.00
  YS02001629YS02163301    1.00   0.06  0.00  0.00  0.94  0.00  0.00  0.00  0.00  0.00
  YS02001619YS02001622    1.00   0.04  0.00  0.00  0.96  0.00  0.00  0.00  0.00  0.00
  YS02001622YS02001625    1.00   0.05  0.00  0.00  0.95  0.00  0.00  0.00  0.13  0.00
  YS02001625YS02001629    1.00   0.05  0.03  0.00  0.91  0.00  0.02  0.00  0.00  0.00
  YS02163301YS02001633    1.00   0.00  0.06  0.00  0.94  0.00  0.00  0.00  0.00  0.00
  YS02163601YS02164001    1.00   0.00  0.04  0.00  0.96  0.00  0.00  0.00  0.00  0.00
  YS02164001YS02001641    1.00   0.01  0.03  0.00  0.96  0.00  0.00  0.00  0.07  0.00
  YS02001641YS02001644    1.00   0.00  0.01  0.00  0.99  0.00  0.00  0.00  0.00  0.00
  YS02001647YS02001649    1.00   0.00  0.07  0.00  0.93  0.00  0.00  0.00  0.01  0.00
  YS02006553YS02006556    1.00   0.01  0.00  0.00  0.99  0.00  0.00  0.00  0.03  0.00
  YS02006556YS02006558    1.00   0.00  0.00  0.00  1.00  0.00  0.00  0.00  0.00  0.00
  YSB6556YSB1171          1.00   0.03  0.01  0.00  0.96  0.00  0.00  0.00  0.00  0.00
  YS02001907YS02006553    1.00   0.00  0.02  0.00  0.98  0.00  0.00  0.00  0.00  0.00
  YS02006558YS02006561    1.00   0.07  0.00  0.00  0.00  0.93  0.00  0.00  0.72  0.00
  YS02001633YS02163601    1.00   0.00  0.01  0.00  0.99  0.00  0.00  0.00  0.20  0.00
  YS02001644YS02001647    1.00   0.00  0.07  0.00  0.93  0.00  0.00  0.00  0.00  0.00
  YS02001745YS02001748    1.00   0.00  0.00  0.00  0.69  0.11  0.00  0.20  0.62  0.00
  YS02001748YS02001751    1.00   0.00  0.00  0.00  0.97  0.03  0.00  0.00  0.25  0.00
  YS02001751YS02001754    1.00   0.00  0.00  0.00  0.93  0.00  0.00  0.07  0.02  0.00
  YS02001754YS02001757    1.00   0.00  0.00  0.00  0.99  0.01  0.00  0.00  0.27  0.00
  YS02001882YS02001884    1.00   0.06  0.00  0.00  0.94  0.00  0.00  0.00  0.00  0.00
  YS02001884YS02001887    1.00   0.03  0.01  0.00  0.96  0.00  0.00  0.00  0.00  0.00
  YS02001890YS02001895    1.00   0.00  0.06  0.00  0.94  0.00  0.00  0.00  0.00  0.00
  YS02001895YS02001898    1.00   0.06  0.00  0.00  0.93  0.00  0.01  0.00  0.00  0.00
  YS02001898YS02001901    1.00   0.06  0.00  0.00  0.94  0.00  0.00  0.00  0.02  0.00
  YS02001901YS02001904    1.00   0.06  0.00  0.00  0.94  0.00  0.00  0.00  0.00  0.00
  YS02001904YS02001907    1.00   0.00  0.06  0.00  0.94  0.00  0.00  0.00  0.00  0.00
  YS02001887YS02001890    1.00   0.00  0.00  0.00  0.97  0.00  0.02  0.00  0.00  0.00
  YS02001652YS02001649    1.00   0.00  0.00  0.00  1.00  0.00  0.00  0.00  0.26  0.00
  YS02001655YS02001652    1.00   0.00  0.00  0.00  0.93  0.00  0.00  0.07  0.02  0.00
  YS02001658YS02001655    1.00   0.00  0.05  0.00  0.91  0.03  0.00  0.00  0.18  0.00
  YS02001661YS02001658    1.00   0.05  0.00  0.00  0.75  0.20  0.00  0.00  0.74  0.00
  YS02001664YS02001661    1.00   0.04  0.00  0.00  0.81  0.14  0.00  0.00  0.86  0.00
  YSB1154YSB6556          1.00   0.04  0.00  0.00  0.96  0.00  0.00  0.00  0.02  0.00
  YSB1174YSB1171          1.00   0.03  0.01  0.00  0.96  0.00  0.00  0.00  0.00  0.00
  YSB1171HS02004479       1.00   0.03  0.00  0.00  0.97  0.00  0.00  0.00  0.13  0.00
  HS02004881HS02006253    1.00   0.03  0.00  0.00  0.86  0.01  0.00  0.10  0.66  0.00
  YS02001793JiankangQianchi    1.00   0.00  0.00  0.00  0.02  0.98  0.00  0.00  0.02  0.00
  YS02001757CaochengTiaoxuchi    1.00   0.00  0.09  0.00  0.91  0.00  0.00  0.00  0.00  0.00
  WSF200WS02003060        1.00   0.00  0.06  0.00  0.94  0.00  0.00  0.00  0.29  0.00
  1                       1.00   0.00  0.00  0.00  0.00  1.00  0.00  0.00  0.18  0.00
  2                       1.00   0.95  0.00  0.00  0.00  0.05  0.00  0.00  0.00  0.00
  3                       1.00   0.10  0.00  0.00  0.00  0.90  0.00  0.00  0.27  0.00
  4                       1.00   1.00  0.00  0.00  0.00  0.00  0.00  0.00  0.00  0.00
  
  
  *************************
  Conduit Surcharge Summary
  *************************
  
  ----------------------------------------------------------------------------
                                                           Hours        Hours 
                         --------- Hours Full --------   Above Full   Capacity
  Conduit                Both Ends  Upstream  Dnstream   Normal Flow   Limited
  ----------------------------------------------------------------------------
  WS02006229WS02006228        0.73      0.79      0.73      5.24         0.73
  WS02006256WS02006235        5.69      5.69      6.55      5.33         0.01
  WS02006252WS02006251        0.38      0.38      0.46      0.44         0.01
  WS02006251WS02006249        0.01      0.01      0.01      0.36         0.01
  WS02006249WS02006248        0.01      0.01      0.01      5.09         0.01
  WS02006247WS02006245        0.01      0.01      0.01      5.20         0.01
  WS02006243WS02006242        0.01      0.01      0.23      0.01         0.01
  WS02006242WS02006240        0.01      0.01      0.32      0.40         0.01
  WS02006240WS02006239        0.01      0.01      0.01      0.31         0.01
  WS02006239WS02006238        0.02      0.25      0.02      0.32         0.01
  WS02006238WS02006235        0.01      0.01      0.31      0.01         0.01
  WS02006235WS02006234        0.01      0.01      0.01      5.71         0.01
  WS02006234WS02006232        0.01      0.01      0.68      0.01         0.01
  WS02006232WS02006231        0.01      0.01      0.68      0.01         0.01
  WS02006231WS02006230        0.01      0.01      0.01      5.71         0.01
  WS02006230WS02006229        1.65      4.65      1.65      5.80         1.65
  WS02006228WS02006109        0.76      1.29      0.76      5.46         0.76
  WS02006111WS02006112        0.01      0.01      5.19      0.01         0.01
  WS02006110WS02006113        0.01      0.01      1.13      0.01         0.01
  WS02006109WS02006110        0.01      0.01      1.28      0.01         0.01
  WS02004404WS02004405        0.01      0.01      0.01      5.57         0.01
  WS02003072WS02003073        0.01      0.01      0.01      5.49         0.01
  YS02001759YS02001757        2.13      2.13      4.57      0.01         0.01
  YS02001762YS02001759        1.18      1.18      2.13      0.01         0.01
  YS02001765YS02001762        0.01      0.01      1.18      0.01         0.01
  YS02001649YS02001757        1.54      1.54      4.57      0.01         0.01
  YS02163601YS02164001        0.01      0.01      1.31      0.01         0.01
  YS02001641YS02001644        0.01      0.01      0.01      0.01         0.01
  YS02001647YS02001649        0.01      0.01      1.54      0.01         0.01
  YS02001633YS02163601        0.01      0.01      1.31      0.01         0.01
  YS02001644YS02001647        0.01      0.01      0.01      0.01         0.01
  YS02001754YS02001757        0.01      0.01      4.57      0.01         0.01
  YS02001652YS02001649        0.01      0.01      1.54      0.01         0.01
  YS02001793JiankangQianchi        0.01      0.01      0.09      0.01         0.01
  YS02001757CaochengTiaoxuchi        0.01      0.01      4.57      0.01         0.01
  
  
  ***************
  Pumping Summary
  ***************
  
  ---------------------------------------------------------------------------------------------------------
                                                  Min       Avg       Max     Total     Power    % Time Off
                        Percent   Number of      Flow      Flow      Flow    Volume     Usage    Pump Curve
  Pump                 Utilized   Start-Ups       LPS       LPS       LPS  10^6 ltr     Kw-hr    Low   High
  ---------------------------------------------------------------------------------------------------------
  CC-Pump-1               48.93           1      0.00    196.17    200.00     2.700      9.48    0.0   28.2
  CC-Pump-2               27.51           2      0.00    180.86    200.00     1.394      5.62    0.0   93.7
  JK-Pump-1               95.75           1      0.00    136.82    300.00     2.764     53.85    0.0    0.0
  JK-Pump-2               76.60           1      0.00    131.81    267.36     2.586     51.06    0.0    0.0
  XR-Pump-1              100.00           2      0.00     92.73     95.00     2.622     53.30    0.0    0.0
  XR-Pump-2               36.15           2      0.00     88.23     95.00     0.883     18.22    0.0    0.0
  XR-Pump-3               95.75           1      0.00     93.75     95.00     2.537     51.11    0.0    0.0
  XR-Pump-4               76.58           1      0.00     94.77     95.00     2.023     47.44    0.0    0.0
  

  Analysis begun on:  Tue Dec 21 18:52:02 2021
  Analysis ended on:  Tue Dec 21 18:52:05 2021
  Total elapsed time: 00:00:03