
  EPA STORM WATER MANAGEMENT MODEL - VERSION 5.1 (Build 5.3.0.dev0)
  --------------------------------------------------------------

  WARNING 04: minimum elevation drop used for Conduit WS02004404WS02004405
  WARNING 03: negative offset ignored for Link YS02001904YS02001907
  
  *********************************************************
  NOTE: The summary statistics displayed in this report are
  based on results found at every computational time step,  
  not just on results from each reporting time step.
  *********************************************************
  
  ****************
  Analysis Options
  ****************
  Flow Units ............... LPS
  Process Models:
    Rainfall/Runoff ........ YES
    RDII ................... NO
    Snowmelt ............... NO
    Groundwater ............ NO
    Flow Routing ........... YES
    Ponding Allowed ........ NO
    Water Quality .......... NO
  Infiltration Method ...... HORTON
  Flow Routing Method ...... DYNWAVE
  Surcharge Method ......... EXTRAN
  Starting Date ............ 08/28/2015 08:00:00
  Ending Date .............. 08/28/2015 15:50:00
  Antecedent Dry Days ...... 8.0
  Report Time Step ......... 00:01:00
  Wet Time Step ............ 00:01:00
  Dry Time Step ............ 00:01:00
  Routing Time Step ........ 5.00 sec
  Variable Time Step ....... YES
  Maximum Trials ........... 8
  Number of Threads ........ 4
  Head Tolerance ........... 0.001500 m
  
  
  **************************        Volume         Depth
  Runoff Quantity Continuity     hectare-m            mm
  **************************     ---------       -------
  Total Precipitation ......         1.967         4.306
  Evaporation Loss .........         0.000         0.000
  Infiltration Loss ........         0.486         1.064
  Surface Runoff ...........         0.673         1.473
  Final Storage ............         0.809         1.770
  Continuity Error (%) .....        -0.017
  
  
  **************************        Volume        Volume
  Flow Routing Continuity        hectare-m      10^6 ltr
  **************************     ---------     ---------
  Dry Weather Inflow .......         0.616         6.165
  Wet Weather Inflow .......         0.672         6.721
  Groundwater Inflow .......         0.000         0.000
  RDII Inflow ..............         0.000         0.000
  External Inflow ..........         0.102         1.024
  External Outflow .........         1.657        16.566
  Flooding Loss ............         0.000         0.000
  Evaporation Loss .........         0.000         0.000
  Exfiltration Loss ........         0.000         0.000
  Initial Stored Volume ....         0.076         0.761
  Final Stored Volume ......         0.132         1.319
  Continuity Error (%) .....       -21.912
  
  
  *************************
  Highest Continuity Errors
  *************************
  Node HS02004842 (36.00%)
  Node JK-storage (-35.85%)
  Node YS02001884 (30.31%)
  Node YS02001774 (15.12%)
  Node YSB1171 (10.21%)
  
  
  ***************************
  Time-Step Critical Elements
  ***************************
  Link WS02006252WS02006251 (57.25%)
  Link 3 (33.80%)
  Link WS02006238WS02006235 (2.95%)
  Link WS02006280WS02006229 (2.13%)
  
  
  ********************************
  Highest Flow Instability Indexes
  ********************************
  Link WS02006113WS02006111 (43)
  Link WS02006111WS02006112 (33)
  Link WS02006110WS02006113 (3)
  Link YS02001754YS02001757 (3)
  Link YS02001751YS02001754 (3)
  
  
  *************************
  Routing Time Step Summary
  *************************
  Minimum Time Step           :     0.24 sec
  Average Time Step           :     0.90 sec
  Maximum Time Step           :     5.00 sec
  Percent in Steady State     :    -0.00
  Average Iterations per Step :     2.11
  Percent Not Converging      :     0.04
  
  
  ***************************
  Subcatchment Runoff Summary
  ***************************
  
  ------------------------------------------------------------------------------------------------------------------------------
                            Total      Total      Total      Total     Imperv       Perv      Total       Total     Peak  Runoff
                           Precip      Runon       Evap      Infil     Runoff     Runoff     Runoff      Runoff   Runoff   Coeff
  Subcatchment                 mm         mm         mm         mm         mm         mm         mm    10^6 ltr      LPS
  ------------------------------------------------------------------------------------------------------------------------------
  sub0                       4.31       0.00       0.00       0.30       2.74       0.00       2.74        0.00     0.83   0.636
  sub1                       4.31       0.00       0.00       0.47       2.58       0.00       2.58        0.02     4.25   0.599
  sub2                       4.31       0.00       0.00       1.59       1.81       0.00       1.81        0.02     3.74   0.420
  sub3                       4.31       0.00       0.00       1.59       1.78       0.00       1.78        0.04     7.64   0.413
  sub4                       4.31       0.00       0.00       0.47       2.45       0.00       2.45        0.05     8.52   0.569
  sub5                       4.31       0.00       0.00       0.30       2.69       0.00       2.69        0.03     7.56   0.626
  sub7                       4.31       0.00       0.00       0.39       2.66       0.00       2.66        0.01     2.69   0.619
  sub8                       4.31       0.00       0.00       0.39       2.66       0.00       2.66        0.02     4.73   0.617
  sub9                       4.31       0.00       0.00       0.39       2.65       0.00       2.65        0.01     3.50   0.616
  sub10                      4.31       0.00       0.00       0.34       2.67       0.00       2.67        0.03     7.55   0.621
  sub11                      4.31       0.00       0.00       0.34       2.69       0.00       2.69        0.03     8.91   0.624
  sub12                      4.31       0.00       0.00       0.56       2.56       0.00       2.56        0.02     7.63   0.594
  sub14                      4.31       0.00       0.00       0.39       2.65       0.00       2.65        0.03     6.84   0.616
  sub15                      4.31       0.00       0.00       1.29       2.04       0.00       2.04        0.04     9.27   0.473
  sub16                      4.31       0.00       0.00       1.42       1.97       0.00       1.97        0.02     6.68   0.457
  sub17                      4.31       0.00       0.00       1.38       1.99       0.00       1.99        0.02     5.39   0.463
  sub22                      4.31       0.00       0.00       1.85       1.67       0.00       1.67        0.11    30.51   0.387
  sub23                      4.31       0.00       0.00       1.59       1.84       0.00       1.84        0.09    26.01   0.428
  sub60                      4.31       0.00       0.00       0.52       1.61       0.00       1.61        0.49    41.47   0.373
  sub61                      4.31       0.00       0.00       0.73       1.77       0.00       1.77        0.55    52.87   0.411
  sub62                      4.31       0.00       0.00       0.34       1.88       0.00       1.88        0.58    53.89   0.437
  sub63                      4.31       0.00       0.00       1.25       1.59       0.00       1.59        0.48    49.53   0.370
  sub64                      4.31       0.00       0.00       0.65       1.53       0.00       1.53        0.47    39.31   0.356
  sub65                      4.31       0.00       0.00       0.56       1.55       0.00       1.55        0.48    39.81   0.359
  sub66                      4.31       0.00       0.00       1.25       1.35       0.00       1.35        0.41    36.31   0.313
  sub67                      4.31       0.00       0.00       0.34       2.12       0.00       2.12        0.65    69.78   0.493
  sub68                      4.31       0.00       0.00       0.60       1.89       0.00       1.89        0.58    58.60   0.440
  sub69                      4.31       0.00       0.00       0.65       2.10       0.00       2.10        0.49    58.79   0.488
  sub70                      4.31       2.14       0.00       2.19       2.42       0.00       2.42        0.55    43.75   0.376
  sub71                      4.31       0.00       0.00       0.34       1.78       0.00       1.78        0.42    37.41   0.413
  sub72                      4.31       0.00       0.00       0.30       1.18       0.00       1.18        0.24    16.89   0.274
  sub73                      4.31       2.36       0.00       2.27       2.36       0.00       2.36        0.55    37.29   0.354
  sub74                      4.31       0.00       0.00       3.23       0.64       0.00       0.64        0.26    32.93   0.148
  
  
  ******************
  Node Depth Summary
  ******************
  
  ---------------------------------------------------------------------------------
                                 Average  Maximum  Maximum  Time of Max    Reported
                                   Depth    Depth      HGL   Occurrence   Max Depth
  Node                 Type       Meters   Meters   Meters  days hr:min      Meters
  ---------------------------------------------------------------------------------
  WS02001211           JUNCTION     0.71     0.78     5.62     0  03:04        0.78
  WS02001212           JUNCTION     0.42     0.49     5.55     0  03:03        0.49
  WS02001213           JUNCTION     0.65     0.73     5.49     0  03:02        0.73
  WS02003069           JUNCTION     0.45     0.54     5.12     0  03:01        0.54
  WS02003072           JUNCTION     0.52     0.60     4.97     0  03:02        0.60
  WS02003073           JUNCTION     0.31     0.37     4.43     0  03:03        0.37
  WS02003060           JUNCTION     0.40     0.47     5.41     0  03:01        0.47
  WS02003066           JUNCTION     0.23     0.27     5.82     0  04:03        0.27
  WS02003059           JUNCTION     0.70     0.78     5.47     0  03:02        0.78
  WS02003067           JUNCTION     0.56     0.65     5.97     0  04:02        0.65
  WS02004401           JUNCTION     0.66     0.76     6.76     0  03:57        0.76
  WS02004402           JUNCTION     0.69     0.79     6.75     0  03:57        0.79
  WS02004403           JUNCTION     0.71     0.81     6.74     0  03:57        0.81
  WS02004404           JUNCTION     0.78     0.88     6.73     0  03:58        0.88
  WS02004406           JUNCTION     0.79     0.89     6.72     0  03:58        0.89
  WS02004409           JUNCTION     0.48     0.58     6.35     0  04:01        0.58
  WS02004410           JUNCTION     0.50     0.60     6.32     0  04:02        0.60
  WS02004411           JUNCTION     0.51     0.61     6.29     0  04:02        0.61
  WS02004412           JUNCTION     0.53     0.62     6.26     0  04:02        0.62
  WS02004413           JUNCTION     0.69     0.79     6.26     0  04:02        0.79
  WS02004405           JUNCTION     0.78     0.88     6.73     0  03:58        0.88
  WS02006109           JUNCTION     0.73     0.84     7.46     0  03:48        0.84
  WS02006110           JUNCTION     0.73     0.83     7.41     0  03:48        0.83
  WS02006111           JUNCTION     0.21     0.25     6.96     0  03:49        0.25
  WS02006112           JUNCTION     0.82     0.93     6.82     0  03:57        0.93
  WS02006113           JUNCTION     0.33     0.39     7.29     0  03:49        0.39
  WS02006115           JUNCTION     0.55     0.65     6.79     0  03:57        0.65
  WS02006116           JUNCTION     0.63     0.73     6.77     0  03:57        0.73
  WS02006230           JUNCTION     0.69     0.86     7.60     0  03:48        0.86
  WS02006231           JUNCTION     0.46     0.58     7.71     0  03:49        0.58
  WS02006232           JUNCTION     0.60     0.73     7.77     0  03:49        0.73
  WS02006234           JUNCTION     0.52     0.68     7.84     0  03:49        0.68
  WS02006235           JUNCTION     0.55     0.72     7.88     0  03:49        0.72
  WS02006238           JUNCTION     0.58     0.75     7.89     0  03:49        0.75
  WS02006240           JUNCTION     0.48     0.68     7.97     0  03:49        0.68
  WS02006242           JUNCTION     0.54     0.75     8.02     0  03:49        0.75
  WS02006243           JUNCTION     0.43     0.65     8.07     0  03:50        0.65
  WS02006245           JUNCTION     0.41     0.62     8.11     0  03:50        0.62
  WS02006247           JUNCTION     0.43     0.63     8.13     0  03:50        0.63
  WS02006248           JUNCTION     0.38     0.58     8.16     0  03:50        0.58
  WS02006249           JUNCTION     0.41     0.60     8.19     0  03:50        0.60
  WS02006239           JUNCTION     0.54     0.73     7.94     0  03:49        0.73
  WS02006251           JUNCTION     0.41     0.62     8.29     0  04:23        0.62
  WS02006252           JUNCTION     0.37     0.59     8.83     0  04:21        0.58
  WS02006253           JUNCTION     0.43     0.65     8.29     0  04:27        0.64
  WS02006256           JUNCTION     0.94     1.15     8.09     0  00:00        1.14
  WS02004138           JUNCTION     0.17     0.19     7.44     0  02:00        0.19
  WS02004407           JUNCTION     0.22     0.26     6.57     0  03:58        0.26
  WS02006228           JUNCTION     0.72     0.85     7.50     0  03:48        0.85
  WS02006229           JUNCTION     0.70     0.83     7.52     0  03:48        0.83
  WS02006280           JUNCTION     0.05     0.11     8.38     0  02:24        0.11
  WS02006284           JUNCTION     0.34     0.44     8.83     0  02:24        0.44
  WS02006287           JUNCTION     0.07     0.16     9.12     0  02:24        0.16
  WSF200               JUNCTION     0.21     0.26     5.49     0  04:02        0.26
  HS02004901           JUNCTION     0.10     0.19    10.01     0  02:22        0.19
  HS02004881           JUNCTION     0.00     0.02     9.05     0  02:23        0.02
  HS02004876           JUNCTION     0.03     0.09     9.12     0  02:23        0.09
  HS02004870           JUNCTION     0.01     0.03     9.32     0  02:23        0.03
  HS02004862           JUNCTION     0.01     0.03     9.42     0  02:25        0.03
  HS02004856           JUNCTION     0.07     0.09     9.52     0  02:24        0.09
  HS02004852           JUNCTION     0.00     0.02     9.53     0  02:25        0.02
  HS02004848           JUNCTION     0.00     0.02     9.62     0  02:22        0.02
  HS02004842           JUNCTION     0.32     0.35     9.62     0  02:21        0.35
  HS02004837           JUNCTION     0.02     0.04     9.62     0  02:22        0.04
  HS02004830           JUNCTION     0.03     0.05     9.52     0  02:22        0.05
  HS02004824           JUNCTION     0.02     0.03     9.43     0  02:26        0.03
  HS02004817           JUNCTION     0.41     0.49     9.34     0  02:24        0.49
  HS02004807           JUNCTION     0.10     0.16     9.33     0  02:24        0.16
  HS02004802           JUNCTION     0.14     0.20     9.33     0  02:24        0.20
  HS02004799           JUNCTION     0.09     0.20     9.41     0  02:22        0.20
  HS02004792           JUNCTION     0.02     0.07     9.59     0  02:21        0.07
  HS02004788           JUNCTION     0.02     0.05     9.95     0  02:23        0.05
  HS02004785           JUNCTION     0.03     0.10    10.00     0  02:22        0.10
  HS02004777           JUNCTION     0.12     0.21    10.01     0  02:22        0.21
  HS02004770           JUNCTION     0.09     0.18    10.01     0  02:22        0.18
  HS02004480           JUNCTION     0.05     0.15     9.39     0  02:22        0.15
  HS02004479           JUNCTION     0.09     0.19     9.39     0  02:23        0.19
  HS02004478           JUNCTION     0.04     0.09     9.32     0  02:23        0.09
  YS02001745           JUNCTION     0.06     0.09     7.60     0  03:01        0.09
  YS02001748           JUNCTION     0.07     0.14     7.21     0  03:11        0.13
  YS02001751           JUNCTION     0.20     0.35     7.23     0  03:42        0.35
  YS02001754           JUNCTION     0.45     0.65     7.26     0  03:43        0.65
  YS02001762           JUNCTION     0.64     0.82     7.22     0  03:39        0.82
  YS02001765           JUNCTION     0.59     0.77     7.22     0  03:38        0.77
  YS02001767           JUNCTION     0.56     0.73     7.22     0  03:08        0.73
  YS02001770           JUNCTION     0.55     0.72     7.22     0  03:07        0.72
  YS02001774           JUNCTION     0.62     0.79     7.22     0  03:07        0.79
  YS02001779           JUNCTION     0.37     0.53     7.22     0  03:07        0.53
  YS02001882           JUNCTION     0.23     0.34     7.05     0  03:00        0.34
  YS02001884           JUNCTION     0.32     0.44     7.05     0  03:01        0.44
  YS02001759           JUNCTION     0.68     0.85     7.22     0  03:09        0.85
  YS02001887           JUNCTION     0.40     0.52     7.05     0  03:01        0.52
  YS02001890           JUNCTION     0.43     0.55     7.05     0  03:00        0.55
  YS02001898           JUNCTION     0.20     0.30     7.04     0  03:01        0.30
  YS02001901           JUNCTION     0.32     0.43     7.04     0  03:01        0.43
  YS02001904           JUNCTION     0.30     0.41     7.04     0  03:01        0.41
  YS02001907           JUNCTION     0.62     0.75     7.04     0  03:01        0.75
  YS02001910           JUNCTION     0.41     0.53     7.04     0  03:01        0.53
  YS02001915           JUNCTION     0.21     0.32     7.04     0  03:00        0.32
  YS02001918           JUNCTION     0.06     0.07     7.14     0  03:04        0.07
  YS02001619           JUNCTION     0.16     0.29     7.22     0  03:03        0.29
  YS02001629           JUNCTION     0.50     0.67     7.22     0  03:07        0.67
  YS02001641           JUNCTION     0.61     0.78     7.22     0  03:05        0.78
  YS02001644           JUNCTION     0.61     0.79     7.22     0  03:06        0.78
  YS02001652           JUNCTION     0.46     0.63     7.22     0  03:40        0.62
  YS02001655           JUNCTION     0.23     0.37     7.22     0  03:07        0.37
  YS02001920           JUNCTION     0.15     0.17     7.18     0  03:03        0.17
  YS02001923           JUNCTION     0.05     0.06     7.32     0  03:02        0.06
  YS02001926           JUNCTION     0.11     0.14     7.58     0  03:02        0.14
  YS02001929           JUNCTION     0.05     0.06     7.76     0  03:01        0.06
  YS02001658           JUNCTION     0.06     0.10     7.24     0  02:53        0.10
  YS02001661           JUNCTION     0.13     0.17     7.57     0  02:53        0.17
  YS02001664           JUNCTION     0.05     0.09     8.01     0  02:53        0.09
  YS02001622           JUNCTION     0.18     0.31     7.22     0  03:03        0.31
  YS02001633           JUNCTION     0.59     0.76     7.22     0  03:08        0.76
  YS02001649           JUNCTION     0.65     0.83     7.22     0  03:09        0.82
  YS02001757           JUNCTION     0.77     0.96     7.22     0  03:41        0.96
  YS02001895           JUNCTION     0.19     0.30     7.05     0  03:01        0.30
  YS02001625           JUNCTION     0.46     0.61     7.22     0  03:08        0.61
  YS02163301           JUNCTION     0.53     0.70     7.22     0  03:08        0.70
  YS02163601           JUNCTION     0.65     0.82     7.22     0  03:05        0.82
  YS02164001           JUNCTION     0.59     0.76     7.22     0  03:09        0.76
  YS02001647           JUNCTION     0.44     0.61     7.22     0  03:10        0.61
  YSB1154              JUNCTION     0.23     0.33     9.39     0  02:22        0.33
  YSB6556              JUNCTION     0.12     0.22     9.39     0  02:23        0.22
  YSB1174              JUNCTION     0.18     0.28     9.39     0  02:22        0.28
  YSB1171              JUNCTION     0.38     0.49     9.39     0  02:23        0.49
  YS02006553           JUNCTION     0.63     0.75     7.04     0  03:01        0.75
  YS02006561           JUNCTION     0.11     0.17     6.83     0  03:00        0.17
  YS02006556           JUNCTION     0.60     0.72     7.03     0  03:00        0.72
  YS02006558           JUNCTION     0.65     0.77     7.03     0  03:00        0.77
  YS02001783           JUNCTION     0.18     0.29     6.43     0  03:01        0.29
  YS02001784           JUNCTION     0.22     0.32     6.39     0  03:01        0.32
  YS02001786           JUNCTION     0.18     0.28     6.31     0  03:01        0.28
  YS02001788           JUNCTION     0.13     0.20     6.18     0  03:02        0.20
  YS02001790           JUNCTION     0.16     0.24     5.89     0  03:02        0.24
  YS02001791           JUNCTION     0.11     0.16     5.63     0  03:02        0.16
  YS02001793           JUNCTION     0.07     0.11     4.94     0  03:02        0.11
  WS02004139           JUNCTION     0.65     0.73     5.64     0  03:04        0.73
  WSC                  OUTFALL      0.31     0.37     1.04     0  03:03        0.37
  3                    OUTFALL      0.04     0.14     6.14     0  03:02        0.14
  4                    OUTFALL      0.02     0.10     7.10     0  03:50        0.10
  5                    OUTFALL      0.00     0.00     5.00     0  00:00        0.00
  JK-storage           STORAGE      0.04     3.00     3.80     0  00:00        2.70
  CC-storage           STORAGE      0.01     0.12     7.12     0  03:36        0.12
  XR-storage           STORAGE      0.73     5.57     3.57     0  01:50        5.57
  
  
  *******************
  Node Inflow Summary
  *******************
  
  -------------------------------------------------------------------------------------------------
                                  Maximum  Maximum                  Lateral       Total        Flow
                                  Lateral    Total  Time of Max      Inflow      Inflow     Balance
                                   Inflow   Inflow   Occurrence      Volume      Volume       Error
  Node                 Type           LPS      LPS  days hr:min    10^6 ltr    10^6 ltr     Percent
  -------------------------------------------------------------------------------------------------
  WS02001211           JUNCTION      7.35   387.81     0  03:20       0.207        8.07       0.456
  WS02001212           JUNCTION      0.00   387.97     0  03:20           0        8.03       0.253
  WS02001213           JUNCTION      0.00   388.15     0  03:20           0        8.01       0.273
  WS02003069           JUNCTION      0.32   816.41     0  03:01     0.00902          15       0.183
  WS02003072           JUNCTION      0.00   816.40     0  03:02           0          15       0.228
  WS02003073           JUNCTION      1.82   818.23     0  03:02      0.0514          15       0.254
  WS02003060           JUNCTION     16.53   816.08     0  03:01       0.466          15       0.174
  WS02003066           JUNCTION      0.00   414.22     0  04:03           0        6.62       0.056
  WS02003059           JUNCTION      0.00   388.45     0  03:20           0        7.99       0.472
  WS02003067           JUNCTION      0.00   414.21     0  04:02           0        6.63       0.123
  WS02004401           JUNCTION      0.00   414.70     0  03:55           0        6.83       0.274
  WS02004402           JUNCTION      0.00   414.60     0  03:56           0        6.81       0.262
  WS02004403           JUNCTION      0.00   414.56     0  03:57           0        6.79       0.242
  WS02004404           JUNCTION      0.16   414.69     0  03:57     0.00457        6.78       0.186
  WS02004406           JUNCTION      0.00   414.71     0  03:58           0        6.75       0.454
  WS02004409           JUNCTION      0.00   414.71     0  03:58           0        6.71       0.194
  WS02004410           JUNCTION      0.00   414.47     0  04:00           0         6.7       0.224
  WS02004411           JUNCTION      0.00   414.33     0  04:00           0        6.69       0.234
  WS02004412           JUNCTION      0.00   414.26     0  04:01           0        6.67       0.260
  WS02004413           JUNCTION      0.00   414.23     0  04:02           0        6.65       0.395
  WS02004405           JUNCTION      0.04   414.72     0  03:57     0.00107        6.77       0.278
  WS02006109           JUNCTION      1.23   416.53     0  03:48      0.0347        6.92       0.292
  WS02006110           JUNCTION      0.00   416.53     0  03:48           0         6.9       0.251
  WS02006111           JUNCTION      0.00   426.56     0  03:49           0        6.87       0.048
  WS02006112           JUNCTION      5.39   417.74     0  03:49      0.0171        6.89       0.382
  WS02006113           JUNCTION      0.00   416.58     0  03:49           0        6.88       0.115
  WS02006115           JUNCTION      0.00   415.60     0  03:52           0        6.86       0.241
  WS02006116           JUNCTION      0.00   414.93     0  03:54           0        6.84       0.233
  WS02006230           JUNCTION     10.28   390.40     0  04:06        0.29        6.26       0.179
  WS02006231           JUNCTION      0.00   380.06     0  04:06           0        5.98       0.159
  WS02006232           JUNCTION      0.00   380.05     0  04:06           0           6       0.233
  WS02006234           JUNCTION      0.00   380.78     0  03:45           0           6       0.093
  WS02006235           JUNCTION      0.00   382.27     0  03:42           0        6.04       0.153
  WS02006238           JUNCTION      0.00   313.44     0  04:20           0        4.48       0.135
  WS02006240           JUNCTION      0.00   317.71     0  03:41           0        4.46       0.193
  WS02006242           JUNCTION      0.00   326.52     0  03:41           0        4.46       0.248
  WS02006243           JUNCTION      0.00   336.11     0  03:41           0        4.45       0.043
  WS02006245           JUNCTION      0.00   342.48     0  03:41           0        4.46       0.145
  WS02006247           JUNCTION      0.00   348.77     0  03:41           0        4.46       0.117
  WS02006248           JUNCTION      0.00   354.47     0  03:40           0        4.47       0.062
  WS02006249           JUNCTION      0.00   403.19     0  03:49           0        4.83       0.173
  WS02006239           JUNCTION      0.00   313.40     0  04:21           0        4.47       0.195
  WS02006251           JUNCTION      0.08   410.71     0  04:22     0.00217        4.94       0.140
  WS02006252           JUNCTION      0.00   400.00     0  03:40           0        4.74       0.009
  WS02006253           JUNCTION      0.83    50.26     0  05:24     0.00222       0.196       1.239
  WS02006256           JUNCTION      0.00   373.06     0  03:02           0        2.85       0.092
  WS02004138           JUNCTION      0.00   380.00     0  02:00           0        7.89       0.058
  WS02004407           JUNCTION      0.00   414.71     0  03:58           0        6.72       0.089
  WS02006228           JUNCTION      0.00   415.29     0  03:48           0         6.9       0.193
  WS02006229           JUNCTION      0.00   415.33     0  03:48           0        6.91       0.156
  WS02006280           JUNCTION      0.00   124.62     0  02:24           0       0.658       0.011
  WS02006284           JUNCTION      0.10   124.62     0  02:24      0.0027       0.659       0.173
  WS02006287           JUNCTION      0.00   124.54     0  02:23           0       0.657       0.106
  WSF200               JUNCTION      0.00   414.22     0  04:03           0        6.62       0.051
  HS02004901           JUNCTION      6.68     6.68     0  02:14      0.0206      0.0207       9.260
  HS02004881           JUNCTION      2.69    22.38     0  02:23     0.00897      0.0929       0.234
  HS02004876           JUNCTION      4.25    19.93     0  02:23      0.0171      0.0845       0.618
  HS02004870           JUNCTION      4.73    15.77     0  02:22       0.017      0.0675       0.157
  HS02004862           JUNCTION      3.94    11.37     0  02:23      0.0225      0.0507       0.330
  HS02004856           JUNCTION      3.50     7.47     0  02:22      0.0128      0.0296       5.094
  HS02004852           JUNCTION      0.00     4.20     0  02:23           0      0.0169       0.285
  HS02004848           JUNCTION      7.64     7.64     0  02:25        0.04        0.04       0.106
  HS02004842           JUNCTION      0.00     4.47     0  00:03           0      0.0361      56.246
  HS02004837           JUNCTION     13.90    17.18     0  02:21       0.209       0.232       0.352
  HS02004830           JUNCTION      0.15    17.32     0  02:22     0.00423       0.222       0.558
  HS02004824           JUNCTION      8.57    25.78     0  02:26      0.0525       0.273       0.197
  HS02004817           JUNCTION      0.60    26.38     0  02:26      0.0169        0.29       6.102
  HS02004807           JUNCTION      8.91    34.49     0  02:24      0.0312       0.304       1.408
  HS02004802           JUNCTION      0.00    34.56     0  02:26           0         0.3       1.374
  HS02004799           JUNCTION      6.84    76.70     0  02:21      0.0252       0.323       0.700
  HS02004792           JUNCTION     30.79    70.06     0  02:21       0.113       0.298       0.140
  HS02004788           JUNCTION     10.94    40.90     0  02:22      0.0821       0.186       0.212
  HS02004785           JUNCTION      0.15    30.36     0  02:21     0.00423       0.106       0.453
  HS02004777           JUNCTION      0.03    30.69     0  02:18    0.000846       0.106       5.124
  HS02004770           JUNCTION     26.01    31.73     0  02:16      0.0879       0.107       2.987
  HS02004480           JUNCTION      0.00    90.31     0  02:22           0       0.373       0.183
  HS02004479           JUNCTION      0.00    13.92     0  02:24           0      0.0624       1.179
  HS02004478           JUNCTION      0.00   124.54     0  02:23           0       0.658       0.100
  YS02001745           JUNCTION     41.47    41.47     0  03:01       0.487       0.487       0.074
  YS02001748           JUNCTION      0.04    41.51     0  03:01     0.00127       0.487       0.036
  YS02001751           JUNCTION      0.01   108.41     0  03:50     0.00031       0.631       0.290
  YS02001754           JUNCTION      0.26   230.98     0  03:49     0.00733        1.12       0.873
  YS02001762           JUNCTION      0.00    65.09     0  03:49           0       0.635       2.150
  YS02001765           JUNCTION      0.00    96.44     0  03:47           0       0.624       2.290
  YS02001767           JUNCTION      0.54    70.31     0  03:47      0.0151        0.63       3.180
  YS02001770           JUNCTION     54.05    60.00     0  02:50       0.582       0.605       2.742
  YS02001774           JUNCTION      0.00    28.59     0  02:30           0      0.0962      17.809
  YS02001779           JUNCTION      0.01    14.97     0  03:46    0.000141      0.0586       9.705
  YS02001882           JUNCTION      0.00     2.32     0  02:12           0     0.00356      69.173
  YS02001884           JUNCTION      0.00     7.07     0  02:12           0      0.0145      43.489
  YS02001759           JUNCTION     52.91   133.90     0  03:46       0.546        1.16       1.389
  YS02001887           JUNCTION     70.23    70.23     0  02:50       0.667       0.673       0.997
  YS02001890           JUNCTION      0.00    69.87     0  02:53           0       0.654       1.130
  YS02001898           JUNCTION      0.00    69.61     0  02:56           0       0.644       0.288
  YS02001901           JUNCTION      0.00    69.60     0  02:56           0       0.644       0.785
  YS02001904           JUNCTION      0.00    69.35     0  02:57           0       0.643       0.732
  YS02001907           JUNCTION      0.00   126.36     0  03:02           0        1.37       1.577
  YS02001910           JUNCTION      0.00    57.16     0  03:01           0       0.736       1.311
  YS02001915           JUNCTION     37.43    57.01     0  03:01        0.42        0.74       0.538
  YS02001918           JUNCTION      0.00    19.77     0  03:03           0        0.32       0.266
  YS02001619           JUNCTION     36.31    36.31     0  03:01       0.413       0.413       0.135
  YS02001629           JUNCTION      0.00    39.19     0  02:39           0       0.397       1.371
  YS02001641           JUNCTION      0.00    82.04     0  03:13           0       0.842       1.528
  YS02001644           JUNCTION     39.35   116.94     0  03:04       0.466        1.29       1.207
  YS02001652           JUNCTION      0.00    75.53     0  03:46           0       0.551       1.595
  YS02001655           JUNCTION      0.15    49.68     0  02:53     0.00434       0.494       0.668
  YS02001920           JUNCTION      2.87    19.78     0  03:02      0.0809       0.322       0.540
  YS02001923           JUNCTION      0.04    16.91     0  03:02     0.00106       0.241       0.095
  YS02001926           JUNCTION      0.05    16.93     0  03:01     0.00147       0.242       0.690
  YS02001929           JUNCTION     16.89    16.89     0  03:01       0.241       0.241       0.090
  YS02001658           JUNCTION      0.00    49.53     0  02:53           0       0.481       0.042
  YS02001661           JUNCTION      0.00    49.53     0  02:53           0       0.481       0.153
  YS02001664           JUNCTION     49.53    49.53     0  02:53       0.482       0.482       0.031
  YS02001622           JUNCTION      0.00    36.98     0  02:59           0       0.413       0.613
  YS02001633           JUNCTION     40.01    78.88     0  02:39       0.481       0.865       2.152
  YS02001649           JUNCTION      0.00   193.79     0  03:46           0        1.78       1.325
  YS02001757           JUNCTION      0.00   451.02     0  03:46           0         3.7       1.905
  YS02001895           JUNCTION      0.00    69.68     0  02:55           0       0.647       0.495
  YS02001625           JUNCTION      0.00    37.71     0  02:47           0        0.41       3.708
  YS02163301           JUNCTION      0.00    42.77     0  03:46           0       0.397       3.146
  YS02163601           JUNCTION      0.11    80.24     0  03:13      0.0031       0.846       2.275
  YS02164001           JUNCTION      0.00    80.66     0  03:13           0       0.836       1.399
  YS02001647           JUNCTION      0.00   119.48     0  03:06           0        1.26       0.929
  YSB1154              JUNCTION      7.56     7.56     0  02:19      0.0305      0.0319       4.738
  YSB6556              JUNCTION      0.00     7.51     0  02:21           0       0.033       3.922
  YSB1174              JUNCTION      7.63     7.63     0  02:13      0.0223      0.0234       5.817
  YSB1171              JUNCTION      0.00    13.90     0  02:20           0      0.0619      11.371
  YS02006553           JUNCTION      0.00   126.54     0  03:03           0        1.36       1.027
  YS02006561           JUNCTION      0.00   185.21     0  03:00           0        1.92       0.028
  YS02006556           JUNCTION      0.00   126.72     0  03:03           0        1.36       0.736
  YS02006558           JUNCTION     59.48   185.22     0  03:00       0.607        1.94       0.222
  YS02001783           JUNCTION      0.00   185.21     0  03:00           0        1.92       0.065
  YS02001784           JUNCTION      1.06   186.27     0  03:01      0.0299        1.94       0.109
  YS02001786           JUNCTION      0.06   186.32     0  03:01     0.00159        1.94       0.106
  YS02001788           JUNCTION      0.07   186.39     0  03:02       0.002        1.94       0.059
  YS02001790           JUNCTION      0.15   186.54     0  03:02     0.00437        1.95       0.077
  YS02001791           JUNCTION      0.00   186.53     0  03:02           0        1.95       0.037
  YS02001793           JUNCTION      0.00   186.53     0  03:02           0        1.94       0.017
  WS02004139           JUNCTION      0.32   380.33     0  02:00     0.00905         7.9       0.476
  WSC                  OUTFALL       0.00   818.23     0  03:03           0          15       0.000
  3                    OUTFALL       0.00   267.46     0  03:02           0        1.25       0.000
  4                    OUTFALL       0.00    91.68     0  03:50           0       0.353       0.000
  5                    OUTFALL       0.00     0.00     0  00:00           0           0       0.000 ltr
  JK-storage           STORAGE       0.00   186.53     0  03:02           0         2.1     -26.388
  CC-storage           STORAGE       0.00   304.09     0  03:07           0        3.15     -33.570
  XR-storage           STORAGE     267.86   267.86     0  03:01        6.45        7.05     -10.696
  
  
  **********************
  Node Surcharge Summary
  **********************
  
  Surcharging occurs when water rises above the top of the highest conduit.
  ---------------------------------------------------------------------
                                               Max. Height   Min. Depth
                                   Hours       Above Crown    Below Rim
  Node                 Type      Surcharged         Meters       Meters
  ---------------------------------------------------------------------
  WS02006109           JUNCTION        1.50          0.019        1.801
  WS02006232           JUNCTION        1.55          0.034        1.446
  WS02006235           JUNCTION        0.67          0.008        1.282
  WS02006238           JUNCTION        1.12          0.027        1.403
  WS02006242           JUNCTION        0.92          0.022        0.798
  WS02006252           JUNCTION        2.17          0.190        0.910
  WS02006228           JUNCTION        1.31          0.019        2.181
  
  
  *********************
  Node Flooding Summary
  *********************
  
  No nodes were flooded.
  
  
  **********************
  Storage Volume Summary
  **********************
  
  --------------------------------------------------------------------------------------------------
                         Average     Avg  Evap Exfil       Maximum     Max    Time of Max    Maximum
                          Volume    Pcnt  Pcnt  Pcnt        Volume    Pcnt     Occurrence    Outflow
  Storage Unit           1000 m3    Full  Loss  Loss       1000 m3    Full    days hr:min        LPS
  --------------------------------------------------------------------------------------------------
  JK-storage               0.002       1     0     0         0.151      52       0  00:00     373.06
  CC-storage               0.036       0     0     0         0.333       2       0  03:36     400.00
  XR-storage               0.087       9     0     0         0.669      72       0  01:50     380.00
  
  
  ***********************
  Outfall Loading Summary
  ***********************
  
  -----------------------------------------------------------
                         Flow       Avg       Max       Total
                         Freq      Flow      Flow      Volume
  Outfall Node           Pcnt       LPS       LPS    10^6 ltr
  -----------------------------------------------------------
  WSC                   99.99    626.41    818.23      14.964
  3                     56.65    101.51    267.46       1.248
  4                     30.63     42.86     91.68       0.353
  5                      0.00      0.00      0.00       0.000
  -----------------------------------------------------------
  System                46.82    770.78   1085.61      16.566
  
  
  ********************
  Link Flow Summary
  ********************
  
  -----------------------------------------------------------------------------
                                 Maximum  Time of Max   Maximum    Max/    Max/
                                  |Flow|   Occurrence   |Veloc|    Full    Full
  Link                 Type          LPS  days hr:min     m/sec    Flow   Depth
  -----------------------------------------------------------------------------
  WS02003066WSF200     CONDUIT    414.22     0  04:03      2.69    0.07    0.20
  WS02006287WS02006284 CONDUIT    124.52     0  02:24      1.36    0.06    0.17
  WS02006284WS02006280 CONDUIT    124.62     0  02:24      1.60    0.05    0.16
  WS02006280WS02006229 CONDUIT    124.62     0  02:24      2.57    0.03    0.11
  WS02006229WS02006228 CONDUIT    415.29     0  03:48      0.83    1.38    1.00
  WS02006256WS02006235 CONDUIT    166.25     0  00:01      2.58    1.76    1.00
  WS02006253WS02006251 CONDUIT     52.18     0  05:24      0.40    0.16    0.89
  WS02006252WS02006251 CONDUIT    400.51     0  04:24      3.19    1.47    1.00
  WS02006251WS02006249 CONDUIT    403.19     0  03:49      1.18    1.16    0.87
  WS02006249WS02006248 CONDUIT    354.47     0  03:40      1.15    1.94    0.82
  WS02006248WS02006247 CONDUIT    348.77     0  03:41      1.11    0.76    0.86
  WS02006247WS02006245 CONDUIT    342.48     0  03:41      1.07    2.72    0.89
  WS02006245WS02006243 CONDUIT    336.11     0  03:41      1.07    0.99    0.90
  WS02006243WS02006242 CONDUIT    326.52     0  03:41      0.94    0.70    0.96
  WS02006242WS02006240 CONDUIT    317.71     0  03:41      0.87    1.26    0.98
  WS02006240WS02006239 CONDUIT    313.40     0  04:21      0.86    0.99    0.98
  WS02006239WS02006238 CONDUIT    313.44     0  04:20      0.81    1.00    1.00
  WS02006238WS02006235 CONDUIT    313.44     0  04:21      1.25    0.70    1.00
  WS02006235WS02006234 CONDUIT    380.78     0  03:45      1.03    4.02    0.97
  WS02006234WS02006232 CONDUIT    380.05     0  04:06      1.13    0.77    0.99
  WS02006232WS02006231 CONDUIT    380.06     0  04:06      1.04    0.80    0.91
  WS02006231WS02006230 CONDUIT    380.12     0  04:06      1.32    5.77    0.76
  WS02006230WS02006229 CONDUIT    390.53     0  04:05      1.01    8.69    1.00
  WS02006228WS02006109 CONDUIT    415.30     0  03:48      0.83    1.81    1.00
  WS02006116WS02004401 CONDUIT    414.70     0  03:55      0.73    0.57    0.74
  WS02006115WS02006116 CONDUIT    414.93     0  03:54      0.79    0.53    0.66
  WS02006113WS02006111 CONDUIT    426.56     0  03:49      2.25    0.51    0.40
  WS02006112WS02006115 CONDUIT    415.60     0  03:52      0.64    0.25    0.79
  WS02006111WS02006112 CONDUIT    417.47     0  03:49      1.32    0.20    0.65
  WS02006110WS02006113 CONDUIT    416.58     0  03:49      1.04    0.38    0.75
  WS02006109WS02006110 CONDUIT    416.53     0  03:48      0.85    0.80    0.95
  WS02004411WS02004412 CONDUIT    414.26     0  04:01      0.82    0.59    0.62
  WS02004401WS02004402 CONDUIT    414.60     0  03:56      0.77    0.50    0.77
  WS02004413WS02003067 CONDUIT    414.21     0  04:02      0.97    0.18    0.54
  WS02004412WS02004413 CONDUIT    414.23     0  04:02      0.70    0.28    0.70
  WS02004410WS02004411 CONDUIT    414.33     0  04:00      0.84    0.57    0.60
  WS02004409WS02004410 CONDUIT    414.47     0  04:00      0.87    0.54    0.59
  WS02004407WS02004409 CONDUIT    414.71     0  03:58      1.36    0.15    0.42
  WS02004406WS02004407 CONDUIT    414.71     0  03:58      0.89    0.19    0.57
  WS02004405WS02004406 CONDUIT    414.71     0  03:58      0.66    0.82    0.88
  WS02004404WS02004405 CONDUIT    414.68     0  03:57      0.84    4.06    0.88
  WS02004403WS02004404 CONDUIT    414.53     0  03:57      0.74    0.30    0.84
  WS02004402WS02004403 CONDUIT    414.56     0  03:57      0.75    0.60    0.80
  WS02004139WS02001211 CONDUIT    380.46     0  03:20      0.69    0.48    0.59
  WS02004138WS02004139 CONDUIT    380.01     0  02:00      2.94    0.08    0.43
  WS02003067WS02003066 CONDUIT    414.22     0  04:03      1.04    0.13    0.38
  WS02001213WS02003059 CONDUIT    388.45     0  03:20      0.68    0.64    0.75
  WS02001212WS02001213 CONDUIT    388.15     0  03:20      1.32    0.60    0.45
  WS02001211WS02001212 CONDUIT    387.97     0  03:20      0.78    0.30    0.64
  WS02003072WS02003073 CONDUIT    816.41     0  03:02      1.64    1.76    0.45
  WS02003069WS02003072 CONDUIT    816.40     0  03:02      1.55    0.39    0.47
  WS02003060WS02003069 CONDUIT    816.09     0  03:01      1.80    0.32    0.42
  WS02003059WS02003060 CONDUIT    388.87     0  03:20      0.93    0.25    0.63
  HS02004901HS02004770 CONDUIT      5.99     0  02:21      0.03    0.02    0.26
  HS02004876HS02004881 CONDUIT     19.93     0  02:23      0.39    0.21    0.07
  HS02004870HS02004876 CONDUIT     15.76     0  02:23      0.27    0.01    0.08
  HS02004842HS02004848 CONDUIT      3.65     0  02:35      0.02    0.00    0.26
  HS02004837HS02004842 CONDUIT      4.47     0  00:03      0.41    0.00    0.28
  HS02004830HS02004837 CONDUIT     17.17     0  02:22      0.38    0.02    0.06
  HS02004824HS02004830 CONDUIT     17.32     0  02:23      0.43    0.02    0.06
  HS02004817HS02004824 CONDUIT     25.78     0  02:26      0.17    0.01    0.37
  HS02004770HS02004777 CONDUIT     30.66     0  02:18      0.16    0.06    0.28
  HS02004799HS02004480 CONDUIT     76.56     0  02:21      0.45    0.10    0.24
  HS02004792HS02004799 CONDUIT     70.02     0  02:21      0.52    0.04    0.19
  HS02004788HS02004792 CONDUIT     40.87     0  02:23      0.69    0.03    0.09
  HS02004785HS02004788 CONDUIT     30.25     0  02:23      0.40    0.23    0.11
  HS02004777HS02004785 CONDUIT     30.21     0  02:21      0.19    0.04    0.22
  HS02004480HS02004478 CONDUIT     90.29     0  02:22      0.77    0.38    0.17
  HS02004479HS02004480 CONDUIT     14.03     0  02:24      0.16    0.01    0.24
  HS02004862HS02004870 CONDUIT     11.34     0  02:24      0.37    0.01    0.04
  HS02004848HS02004852 CONDUIT      4.20     0  02:23      0.24    0.00    0.03
  HS02004856HS02004862 CONDUIT      7.45     0  02:24      0.27    0.01    0.04
  HS02004852HS02004856 CONDUIT      4.17     0  02:25      0.08    0.00    0.08
  HS02004802HS02004478 CONDUIT     34.71     0  02:27      0.24    0.03    0.21
  HS02004478WS02006287 CONDUIT    124.54     0  02:23      1.05    0.03    0.13
  HS02004817HS02004807 CONDUIT     26.61     0  02:28      0.08    0.02    0.47
  HS02004807HS02004802 CONDUIT     34.56     0  02:26      0.19    0.07    0.25
  YS02001759YS02001757 CONDUIT    118.75     0  02:59      0.16    0.08    0.91
  YS02001762YS02001759 CONDUIT     97.48     0  03:46      0.17    0.11    0.83
  YS02001765YS02001762 CONDUIT     65.09     0  03:49      0.22    0.06    0.79
  YS02001770YS02001767 CONDUIT     63.45     0  02:59      0.30    0.25    0.72
  YS02001774YS02001770 CONDUIT     28.59     0  02:30      0.12    0.02    0.74
  YS02001779YS02001774 CONDUIT     15.79     0  03:46      0.07    0.01    0.66
  YS02001649YS02001757 CONDUIT    178.75     0  03:07      0.25    0.11    0.89
  YS02001767YS02001765 CONDUIT     96.44     0  03:47      0.26    0.12    0.74
  YS02006561YS02001783 CONDUIT    185.21     0  03:00      1.55    0.10    0.29
  YS02001783YS02001784 CONDUIT    185.21     0  03:01      1.04    0.26    0.39
  YS02001784YS02001785 CONDUIT    186.27     0  03:01      1.08    0.43    0.37
  YS02001788YS02001790 CONDUIT    186.38     0  03:02      1.63    0.14    0.28
  YS02001790YS02001791 CONDUIT    186.53     0  03:02      1.87    0.20    0.25
  YS02001791YS02001793 CONDUIT    186.53     0  03:02      3.37    0.08    0.17
  YS02001910YS02001907 CONDUIT     57.14     0  03:01      0.49    0.03    0.63
  YS02001786YS02001788 CONDUIT    186.32     0  03:02      1.49    0.36    0.30
  YS02001915YS02001910 CONDUIT     57.16     0  03:01      0.44    0.03    0.42
  YS02001918YS02001915 CONDUIT     19.75     0  03:04      0.44    0.01    0.20
  YS02001923YS02001920 CONDUIT     16.91     0  03:02      0.34    0.01    0.12
  YS02001926YS02001923 CONDUIT     16.87     0  03:02      0.39    0.02    0.10
  YS02001929YS02001926 CONDUIT     16.88     0  03:01      0.41    0.01    0.10
  YS02001920YS02001918 CONDUIT     19.77     0  03:03      0.37    0.02    0.12
  YS02001629YS02163301 CONDUIT     42.77     0  03:46      0.09    0.05    0.68
  YS02001619YS02001622 CONDUIT     36.98     0  02:59      0.56    0.05    0.30
  YS02001622YS02001625 CONDUIT     37.71     0  02:47      0.19    0.02    0.46
  YS02001625YS02001629 CONDUIT     39.19     0  02:39      0.19    0.02    0.45
  YS02163301YS02001633 CONDUIT     42.47     0  02:39      0.08    0.04    0.73
  YS02163601YS02164001 CONDUIT     80.66     0  03:13      0.12    0.07    0.79
  YS02164001YS02001641 CONDUIT     82.04     0  03:13      0.13    0.11    0.77
  YS02001641YS02001644 CONDUIT     78.49     0  03:04      0.13    0.25    0.78
  YS02001647YS02001649 CONDUIT    121.36     0  03:43      0.21    0.06    0.71
  YS02006553YS02006556 CONDUIT    126.72     0  03:03      0.21    0.11    0.72
  YS02006556YS02006558 CONDUIT    126.84     0  03:04      0.20    0.10    0.75
  YSB6556YSB1171       CONDUIT      7.58     0  02:25      0.04    0.01    0.51
  YS02001907YS02006553 CONDUIT    126.54     0  03:03      0.17    0.15    0.82
  YS02006558YS02006561 CONDUIT    185.21     0  03:00      2.00    0.41    0.36
  YS02001633YS02163601 CONDUIT     80.13     0  03:13      0.13    0.08    0.78
  YS02001644YS02001647 CONDUIT    119.48     0  03:06      0.21    0.07    0.69
  YS02001745YS02001748 CONDUIT     41.46     0  03:01      1.23    0.02    0.09
  YS02001748YS02001751 CONDUIT     53.41     0  03:42      0.96    0.03    0.24
  YS02001751YS02001754 CONDUIT    121.01     0  03:50      0.87    0.06    0.45
  YS02001754YS02001757 CONDUIT    178.00     0  03:48      0.33    0.07    0.79
  YS02001882YS02001884 CONDUIT      2.32     0  02:12      0.06    0.00    0.36
  YS02001884YS02001887 CONDUIT      7.07     0  02:12      0.05    0.01    0.45
  YS02001890YS02001895 CONDUIT     69.68     0  02:55      0.22    0.03    0.42
  YS02001895YS02001898 CONDUIT     69.61     0  02:56      0.43    0.12    0.29
  YS02001898YS02001901 CONDUIT     69.60     0  02:56      0.27    0.04    0.37
  YS02001901YS02001904 CONDUIT     69.35     0  02:57      0.22    0.11    0.42
  YS02001904YS02001907 CONDUIT     69.47     0  03:02      0.15    0.02    0.58
  YS02001887YS02001890 CONDUIT     69.87     0  02:53      0.18    0.12    0.51
  YS02001652YS02001649 CONDUIT     79.01     0  03:47      0.28    0.04    0.72
  YS02001655YS02001652 CONDUIT     66.14     0  03:46      0.93    0.03    0.48
  YS02001658YS02001655 CONDUIT     49.53     0  02:53      1.10    0.02    0.23
  YS02001661YS02001658 CONDUIT     49.53     0  02:53      1.24    0.02    0.10
  YS02001664YS02001661 CONDUIT     49.53     0  02:53      0.86    0.02    0.13
  YSB1154YSB6556       CONDUIT      7.51     0  02:21      0.19    0.01    0.40
  YSB1174YSB1171       CONDUIT      7.05     0  02:15      0.04    0.01    0.52
  YSB1171HS02004479    CONDUIT     13.92     0  02:24      0.54    0.01    0.39
  HS02004881HS02006253 CONDUIT     22.38     0  02:23      1.34    0.00    0.22
  YS02001793JiankangQianchi CONDUIT    186.53     0  03:02     11.27    0.01    0.50
  YS02001757CaochengTiaoxuchi CONDUIT    304.09     0  03:07      0.78    0.13    0.54
  WSF200WS02003060     CONDUIT    414.24     0  04:03      1.50    0.09    0.30
  1                    CONDUIT    818.23     0  03:03      3.15    0.28    0.37
  2                    CONDUIT     91.68     0  03:50      4.73    0.22    0.32
  3                    CONDUIT    267.46     0  03:02      8.47    0.43    0.46
  4                    CONDUIT      0.00     0  00:00      0.00    0.00    0.00
  CC-Pump-1            PUMP       200.00     0  03:40              1.00
  CC-Pump-2            PUMP       200.00     0  02:38              1.00
  JK-Pump-1            PUMP       300.00     0  00:00              1.00
  JK-Pump-2            PUMP       186.53     0  03:02              0.62
  XR-Pump-1            PUMP        95.00     0  00:00              1.00
  XR-Pump-2            PUMP        95.00     0  02:00              1.00
  XR-Pump-3            PUMP        95.00     0  00:00              1.00
  XR-Pump-4            PUMP        95.00     0  02:00              1.00
  
  
  ***************************
  Flow Classification Summary
  ***************************
  
  -------------------------------------------------------------------------------------
                      Adjusted    ---------- Fraction of Time in Flow Class ---------- 
                       /Actual         Up    Down  Sub   Sup   Up    Down  Norm  Inlet 
  Conduit               Length    Dry  Dry   Dry   Crit  Crit  Crit  Crit  Ltd   Ctrl  
  -------------------------------------------------------------------------------------
  WS02003066WSF200        1.00   0.06  0.00  0.00  0.00  0.94  0.00  0.00  0.76  0.00
  WS02006287WS02006284    1.00   0.04  0.02  0.00  0.73  0.21  0.00  0.00  0.81  0.00
  WS02006284WS02006280    1.00   0.05  0.00  0.00  0.00  0.00  0.00  0.95  0.00  0.00
  WS02006280WS02006229    1.00   0.05  0.00  0.00  0.00  0.00  0.00  0.95  0.00  0.00
  WS02006229WS02006228    1.00   0.00  0.00  0.00  0.99  0.00  0.00  0.01  0.00  0.00
  WS02006256WS02006235    1.00   0.00  0.00  0.00  1.00  0.00  0.00  0.00  0.00  0.00
  WS02006253WS02006251    1.00   0.03  0.01  0.00  0.95  0.00  0.00  0.00  0.00  0.00
  WS02006252WS02006251    1.00   0.10  0.00  0.00  0.00  0.00  0.90  0.00  0.00  0.00
  WS02006251WS02006249    1.00   0.00  0.00  0.00  1.00  0.00  0.00  0.00  0.30  0.00
  WS02006249WS02006248    1.00   0.00  0.02  0.00  0.89  0.00  0.09  0.00  0.00  0.00
  WS02006248WS02006247    1.00   0.02  0.00  0.00  0.97  0.00  0.00  0.00  0.19  0.00
  WS02006247WS02006245    1.00   0.02  0.00  0.00  0.98  0.00  0.00  0.00  0.00  0.00
  WS02006245WS02006243    1.00   0.01  0.00  0.00  0.94  0.00  0.00  0.04  0.02  0.00
  WS02006243WS02006242    1.00   0.01  0.00  0.00  0.99  0.00  0.00  0.00  0.27  0.00
  WS02006242WS02006240    1.00   0.00  0.00  0.00  1.00  0.00  0.00  0.00  0.00  0.00
  WS02006240WS02006239    1.00   0.00  0.00  0.00  0.95  0.00  0.00  0.05  0.01  0.00
  WS02006239WS02006238    1.00   0.00  0.00  0.00  1.00  0.00  0.00  0.00  0.00  0.00
  WS02006238WS02006235    1.00   0.00  0.00  0.00  1.00  0.00  0.00  0.00  0.00  0.00
  WS02006235WS02006234    1.00   0.00  0.00  0.00  0.95  0.00  0.05  0.00  0.00  0.00
  WS02006234WS02006232    1.00   0.00  0.00  0.00  1.00  0.00  0.00  0.00  0.17  0.00
  WS02006232WS02006231    1.00   0.00  0.00  0.00  0.99  0.00  0.00  0.00  0.00  0.00
  WS02006231WS02006230    1.00   0.00  0.00  0.00  0.56  0.00  0.44  0.00  0.00  0.00
  WS02006230WS02006229    1.00   0.00  0.00  0.00  0.98  0.00  0.00  0.02  0.01  0.00
  WS02006228WS02006109    1.00   0.00  0.00  0.00  1.00  0.00  0.00  0.00  0.00  0.00
  WS02006116WS02004401    1.00   0.03  0.00  0.00  0.97  0.00  0.00  0.00  0.00  0.00
  WS02006115WS02006116    1.00   0.03  0.00  0.00  0.97  0.00  0.00  0.01  0.00  0.00
  WS02006113WS02006111    1.00   0.02  0.00  0.00  0.00  0.98  0.00  0.00  0.11  0.00
  WS02006112WS02006115    1.00   0.02  0.00  0.00  0.97  0.00  0.00  0.00  0.00  0.00
  WS02006111WS02006112    1.00   0.02  0.00  0.00  0.97  0.00  0.00  0.00  0.98  0.00
  WS02006110WS02006113    1.00   0.01  0.01  0.00  0.98  0.00  0.00  0.00  0.00  0.00
  WS02006109WS02006110    1.00   0.00  0.01  0.00  0.98  0.00  0.01  0.00  0.00  0.00
  WS02004411WS02004412    1.00   0.04  0.00  0.00  0.96  0.00  0.00  0.00  0.00  0.00
  WS02004401WS02004402    1.00   0.03  0.00  0.00  0.97  0.00  0.00  0.00  0.00  0.00
  WS02004413WS02003067    1.00   0.04  0.02  0.00  0.00  0.00  0.94  0.00  0.00  0.00
  WS02004412WS02004413    1.00   0.04  0.00  0.00  0.96  0.00  0.00  0.00  0.03  0.00
  WS02004410WS02004411    1.00   0.04  0.00  0.00  0.96  0.00  0.00  0.00  0.04  0.00
  WS02004409WS02004410    1.00   0.04  0.00  0.00  0.96  0.00  0.00  0.00  0.04  0.00
  WS02004407WS02004409    1.00   0.04  0.00  0.00  0.96  0.00  0.00  0.00  0.89  0.00
  WS02004406WS02004407    1.00   0.00  0.04  0.00  0.96  0.00  0.00  0.00  0.00  0.00
  WS02004405WS02004406    1.00   0.00  0.00  0.00  1.00  0.00  0.00  0.00  0.00  0.00
  WS02004404WS02004405    1.00   0.00  0.00  0.00  1.00  0.00  0.00  0.00  0.00  0.00
  WS02004403WS02004404    1.00   0.00  0.03  0.00  0.97  0.00  0.00  0.00  0.01  0.00
  WS02004402WS02004403    1.00   0.03  0.00  0.00  0.97  0.00  0.00  0.00  0.00  0.00
  WS02004139WS02001211    1.00   0.00  0.00  0.00  0.99  0.00  0.00  0.00  0.00  0.00
  WS02004138WS02004139    1.00   0.00  0.00  0.00  0.99  0.01  0.00  0.00  1.00  0.00
  WS02003067WS02003066    1.00   0.06  0.00  0.00  0.94  0.00  0.00  0.00  0.00  0.00
  WS02001213WS02003059    1.00   0.00  0.00  0.00  0.99  0.00  0.00  0.00  0.00  0.00
  WS02001212WS02001213    1.00   0.00  0.00  0.00  0.93  0.00  0.07  0.00  0.00  0.00
  WS02001211WS02001212    1.00   0.00  0.00  0.00  1.00  0.00  0.00  0.00  0.00  0.00
  WS02003072WS02003073    1.00   0.00  0.00  0.00  0.00  0.00  0.00  1.00  0.00  0.00
  WS02003069WS02003072    1.00   0.00  0.00  0.00  0.99  0.01  0.00  0.00  0.23  0.00
  WS02003060WS02003069    1.00   0.00  0.00  0.00  0.99  0.01  0.00  0.00  0.20  0.00
  WS02003059WS02003060    1.00   0.00  0.00  0.00  1.00  0.00  0.00  0.00  0.01  0.00
  HS02004901HS02004770    1.00   0.05  0.00  0.00  0.95  0.00  0.00  0.00  0.03  0.00
  HS02004876HS02004881    1.00   0.02  0.00  0.00  0.98  0.00  0.00  0.00  0.00  0.00
  HS02004870HS02004876    1.00   0.01  0.00  0.00  0.99  0.00  0.00  0.00  0.95  0.00
  HS02004842HS02004848    1.00   0.00  0.05  0.00  0.95  0.00  0.00  0.00  0.70  0.00
  HS02004837HS02004842    1.00   0.00  0.00  0.00  0.99  0.01  0.00  0.00  0.11  0.00
  HS02004830HS02004837    1.00   0.00  0.00  0.00  1.00  0.00  0.00  0.00  0.99  0.00
  HS02004824HS02004830    1.00   0.00  0.00  0.00  1.00  0.00  0.00  0.00  0.00  0.00
  HS02004817HS02004824    1.00   0.00  0.00  0.00  1.00  0.00  0.00  0.00  1.00  0.00
  HS02004770HS02004777    1.00   0.00  0.05  0.00  0.95  0.00  0.00  0.00  0.08  0.00
  HS02004799HS02004480    1.00   0.00  0.03  0.00  0.94  0.00  0.03  0.00  0.00  0.00
  HS02004792HS02004799    1.00   0.00  0.00  0.00  0.99  0.01  0.00  0.00  0.98  0.00
  HS02004788HS02004792    1.00   0.00  0.00  0.00  0.99  0.01  0.00  0.00  0.98  0.00
  HS02004785HS02004788    1.00   0.00  0.00  0.00  1.00  0.00  0.00  0.00  0.00  0.00
  HS02004777HS02004785    1.00   0.00  0.00  0.00  1.00  0.00  0.00  0.00  0.22  0.00
  HS02004480HS02004478    1.00   0.05  0.00  0.00  0.76  0.00  0.00  0.19  0.00  0.00
  HS02004479HS02004480    1.00   0.03  0.00  0.00  0.97  0.00  0.00  0.00  0.16  0.00
  HS02004862HS02004870    1.00   0.00  0.00  0.00  1.00  0.00  0.00  0.00  0.05  0.00
  HS02004848HS02004852    1.00   0.05  0.00  0.00  0.95  0.00  0.00  0.00  0.70  0.00
  HS02004856HS02004862    1.00   0.00  0.07  0.00  0.93  0.00  0.00  0.00  0.73  0.00
  HS02004852HS02004856    1.00   0.05  0.01  0.00  0.95  0.00  0.00  0.00  0.82  0.00
  HS02004802HS02004478    1.00   0.05  0.01  0.00  0.95  0.00  0.00  0.00  0.00  0.00
  HS02004478WS02006287    1.00   0.06  0.00  0.00  0.94  0.00  0.00  0.00  0.81  0.00
  HS02004817HS02004807    1.00   0.00  0.05  0.00  0.95  0.00  0.00  0.00  0.00  0.00
  HS02004807HS02004802    1.00   0.05  0.00  0.00  0.95  0.00  0.00  0.00  0.01  0.00
  YS02001759YS02001757    1.00   0.00  0.00  0.00  1.00  0.00  0.00  0.00  0.17  0.00
  YS02001762YS02001759    1.00   0.00  0.00  0.00  1.00  0.00  0.00  0.00  0.05  0.00
  YS02001765YS02001762    1.00   0.00  0.00  0.00  1.00  0.00  0.00  0.00  0.23  0.00
  YS02001770YS02001767    1.00   0.00  0.00  0.00  1.00  0.00  0.00  0.00  0.00  0.00
  YS02001774YS02001770    1.00   0.00  0.05  0.00  0.94  0.00  0.00  0.00  0.07  0.00
  YS02001779YS02001774    1.00   0.00  0.00  0.00  1.00  0.00  0.00  0.00  0.28  0.00
  YS02001649YS02001757    1.00   0.00  0.00  0.00  1.00  0.00  0.00  0.00  0.19  0.00
  YS02001767YS02001765    1.00   0.00  0.00  0.00  1.00  0.00  0.00  0.00  0.01  0.00
  YS02006561YS02001783    1.00   0.07  0.00  0.00  0.00  0.93  0.00  0.00  0.72  0.00
  YS02001783YS02001784    1.00   0.00  0.07  0.00  0.93  0.00  0.00  0.00  0.08  0.00
  YS02001784YS02001785    1.00   0.00  0.00  0.00  1.00  0.00  0.00  0.00  0.26  0.00
  YS02001788YS02001790    1.00   0.00  0.00  0.00  0.08  0.92  0.00  0.00  0.99  0.00
  YS02001790YS02001791    1.00   0.00  0.00  0.00  0.02  0.98  0.00  0.00  0.38  0.00
  YS02001791YS02001793    1.00   0.00  0.00  0.00  0.00  1.00  0.00  0.00  0.00  0.00
  YS02001910YS02001907    1.00   0.00  0.00  0.00  0.97  0.00  0.00  0.03  0.13  0.00
  YS02001786YS02001788    1.00   0.00  0.00  0.00  0.08  0.92  0.00  0.00  0.00  0.00
  YS02001915YS02001910    1.00   0.00  0.00  0.00  0.99  0.01  0.00  0.00  0.25  0.00
  YS02001918YS02001915    1.00   0.00  0.01  0.00  0.98  0.02  0.00  0.00  0.81  0.00
  YS02001923YS02001920    1.00   0.00  0.00  0.00  1.00  0.00  0.00  0.00  1.00  0.00
  YS02001926YS02001923    1.00   0.00  0.04  0.00  0.00  0.00  0.96  0.00  0.00  0.00
  YS02001929YS02001926    1.00   0.00  0.05  0.00  0.95  0.00  0.00  0.00  0.86  0.00
  YS02001920YS02001918    1.00   0.00  0.01  0.00  0.99  0.00  0.00  0.00  0.00  0.00
  YS02001629YS02163301    1.00   0.06  0.00  0.00  0.93  0.00  0.00  0.00  0.00  0.00
  YS02001619YS02001622    1.00   0.05  0.00  0.00  0.95  0.00  0.00  0.00  0.00  0.00
  YS02001622YS02001625    1.00   0.05  0.00  0.00  0.95  0.00  0.00  0.00  0.14  0.00
  YS02001625YS02001629    1.00   0.05  0.03  0.00  0.90  0.00  0.02  0.00  0.00  0.00
  YS02163301YS02001633    1.00   0.00  0.06  0.00  0.94  0.00  0.00  0.00  0.00  0.00
  YS02163601YS02164001    1.00   0.00  0.04  0.00  0.96  0.00  0.00  0.00  0.00  0.00
  YS02164001YS02001641    1.00   0.01  0.03  0.00  0.96  0.00  0.00  0.00  0.07  0.00
  YS02001641YS02001644    1.00   0.00  0.01  0.00  0.99  0.00  0.00  0.00  0.00  0.00
  YS02001647YS02001649    1.00   0.00  0.07  0.00  0.93  0.00  0.00  0.00  0.01  0.00
  YS02006553YS02006556    1.00   0.02  0.00  0.00  0.98  0.00  0.00  0.00  0.03  0.00
  YS02006556YS02006558    1.00   0.00  0.00  0.00  1.00  0.00  0.00  0.00  0.00  0.00
  YSB6556YSB1171          1.00   0.03  0.02  0.00  0.95  0.00  0.00  0.00  0.00  0.00
  YS02001907YS02006553    1.00   0.00  0.02  0.00  0.97  0.00  0.00  0.00  0.00  0.00
  YS02006558YS02006561    1.00   0.07  0.00  0.00  0.00  0.93  0.00  0.00  0.71  0.00
  YS02001633YS02163601    1.00   0.00  0.01  0.00  0.99  0.00  0.00  0.00  0.20  0.00
  YS02001644YS02001647    1.00   0.00  0.07  0.00  0.93  0.00  0.00  0.00  0.00  0.00
  YS02001745YS02001748    1.00   0.00  0.00  0.00  0.00  0.00  0.00  1.00  0.00  0.00
  YS02001748YS02001751    1.00   0.00  0.00  0.00  0.97  0.03  0.00  0.00  0.76  0.00
  YS02001751YS02001754    1.00   0.00  0.00  0.00  0.92  0.00  0.00  0.08  0.02  0.00
  YS02001754YS02001757    1.00   0.00  0.00  0.00  0.99  0.01  0.00  0.00  0.27  0.00
  YS02001882YS02001884    1.00   0.06  0.00  0.00  0.93  0.00  0.00  0.00  0.00  0.00
  YS02001884YS02001887    1.00   0.03  0.01  0.00  0.96  0.00  0.00  0.00  0.00  0.00
  YS02001890YS02001895    1.00   0.00  0.06  0.00  0.93  0.00  0.00  0.00  0.00  0.00
  YS02001895YS02001898    1.00   0.07  0.00  0.00  0.92  0.00  0.01  0.00  0.00  0.00
  YS02001898YS02001901    1.00   0.06  0.00  0.00  0.93  0.00  0.00  0.00  0.02  0.00
  YS02001901YS02001904    1.00   0.06  0.00  0.00  0.94  0.00  0.00  0.00  0.00  0.00
  YS02001904YS02001907    1.00   0.00  0.06  0.00  0.94  0.00  0.00  0.00  0.00  0.00
  YS02001887YS02001890    1.00   0.00  0.00  0.00  0.97  0.00  0.03  0.00  0.00  0.00
  YS02001652YS02001649    1.00   0.00  0.00  0.00  1.00  0.00  0.00  0.00  0.27  0.00
  YS02001655YS02001652    1.00   0.00  0.00  0.00  0.92  0.00  0.00  0.08  0.03  0.00
  YS02001658YS02001655    1.00   0.00  0.06  0.00  0.91  0.03  0.00  0.00  0.79  0.00
  YS02001661YS02001658    1.00   0.06  0.00  0.00  0.00  0.94  0.00  0.00  0.72  0.00
  YS02001664YS02001661    1.00   0.05  0.00  0.00  0.95  0.00  0.00  0.00  0.86  0.00
  YSB1154YSB6556          1.00   0.05  0.00  0.00  0.95  0.00  0.00  0.00  0.02  0.00
  YSB1174YSB1171          1.00   0.03  0.01  0.00  0.96  0.00  0.00  0.00  0.00  0.00
  YSB1171HS02004479       1.00   0.03  0.00  0.00  0.97  0.00  0.00  0.00  0.13  0.00
  HS02004881HS02006253    1.00   0.03  0.00  0.00  0.85  0.01  0.00  0.11  0.65  0.00
  YS02001793JiankangQianchi    1.00   0.00  0.00  0.00  0.02  0.97  0.00  0.00  0.02  0.00
  YS02001757CaochengTiaoxuchi    1.00   0.00  0.10  0.00  0.90  0.00  0.00  0.00  0.00  0.00
  WSF200WS02003060        1.00   0.00  0.06  0.00  0.94  0.00  0.00  0.00  0.37  0.00
  1                       1.00   0.00  0.00  0.00  0.00  1.00  0.00  0.00  0.25  0.00
  2                       1.00   0.69  0.00  0.00  0.00  0.31  0.00  0.00  0.06  0.00
  3                       1.00   0.43  0.00  0.00  0.00  0.57  0.00  0.00  0.28  0.00
  4                       1.00   1.00  0.00  0.00  0.00  0.00  0.00  0.00  0.00  0.00
  
  
  *************************
  Conduit Surcharge Summary
  *************************
  
  ----------------------------------------------------------------------------
                                                           Hours        Hours 
                         --------- Hours Full --------   Above Full   Capacity
  Conduit                Both Ends  Upstream  Dnstream   Normal Flow   Limited
  ----------------------------------------------------------------------------
  WS02006229WS02006228        1.31      1.69      1.31      3.53         1.31
  WS02006256WS02006235        5.61      5.62      6.54      1.54         0.01
  WS02006252WS02006251        1.10      1.10      2.17      1.84         0.01
  WS02006251WS02006249        0.01      0.01      0.01      1.09         0.01
  WS02006249WS02006248        0.01      0.01      0.01      4.05         0.01
  WS02006247WS02006245        0.01      0.01      0.01      5.12         0.01
  WS02006243WS02006242        0.01      0.01      0.92      0.01         0.01
  WS02006242WS02006240        0.01      0.01      1.32      2.15         0.01
  WS02006239WS02006238        1.07      1.07      1.12      0.39         0.41
  WS02006238WS02006235        0.92      0.92      1.49      0.01         0.01
  WS02006235WS02006234        0.01      0.01      0.67      5.64         0.01
  WS02006234WS02006232        0.01      0.01      1.55      0.01         0.01
  WS02006232WS02006231        0.01      0.01      1.55      0.01         0.01
  WS02006231WS02006230        0.01      0.01      0.01      5.63         0.01
  WS02006230WS02006229        2.81      3.28      2.81      5.73         2.81
  WS02006228WS02006109        1.50      2.39      1.50      5.05         1.50
  WS02006111WS02006112        0.01      0.01      3.81      0.01         0.01
  WS02006110WS02006113        0.01      0.01      2.02      0.01         0.01
  WS02006109WS02006110        0.01      0.01      2.39      0.01         0.01
  WS02004404WS02004405        0.01      0.01      0.01      5.47         0.01
  WS02003072WS02003073        0.01      0.01      0.01      5.42         0.01
  YS02001793JiankangQianchi        0.01      0.01      0.09      0.01         0.01
  
  
  ***************
  Pumping Summary
  ***************
  
  ---------------------------------------------------------------------------------------------------------
                                                  Min       Avg       Max     Total     Power    % Time Off
                        Percent   Number of      Flow      Flow      Flow    Volume     Usage    Pump Curve
  Pump                 Utilized   Start-Ups       LPS       LPS       LPS  10^6 ltr     Kw-hr    Low   High
  ---------------------------------------------------------------------------------------------------------
  CC-Pump-1               55.32           1      0.00    129.78    200.00     2.054      9.49    0.0  100.0
  CC-Pump-2               68.43           1      0.00    138.55    200.00     2.686     12.15    0.0  100.0
  JK-Pump-1               46.81           1      0.00    142.48    300.00     0.959     18.17    0.0    0.0
  JK-Pump-2               76.59           1      0.00     92.53    186.53     1.887     36.79    0.0    0.0
  XR-Pump-1              100.00           2      0.00     92.62     95.00     2.622     54.17    0.0    0.0
  XR-Pump-2               76.59           1      0.00     94.77     95.00     2.023     48.32    0.0    0.0
  XR-Pump-3               46.81           1      0.00     90.52     95.00     1.226     18.37    0.0    0.0
  XR-Pump-4               76.59           1      0.00     94.77     95.00     2.023     48.32    0.0    0.0
  

  Analysis begun on:  Tue Dec 21 18:57:57 2021
  Analysis ended on:  Tue Dec 21 18:58:00 2021
  Total elapsed time: 00:00:03