
  EPA STORM WATER MANAGEMENT MODEL - VERSION 5.1 (Build 5.3.0.dev0)
  --------------------------------------------------------------

  WARNING 04: minimum elevation drop used for Conduit WS02004404WS02004405
  WARNING 03: negative offset ignored for Link YS02001904YS02001907
  
  *********************************************************
  NOTE: The summary statistics displayed in this report are
  based on results found at every computational time step,  
  not just on results from each reporting time step.
  *********************************************************
  
  ****************
  Analysis Options
  ****************
  Flow Units ............... LPS
  Process Models:
    Rainfall/Runoff ........ YES
    RDII ................... NO
    Snowmelt ............... NO
    Groundwater ............ NO
    Flow Routing ........... YES
    Ponding Allowed ........ NO
    Water Quality .......... NO
  Infiltration Method ...... HORTON
  Flow Routing Method ...... DYNWAVE
  Surcharge Method ......... EXTRAN
  Starting Date ............ 08/28/2015 08:00:00
  Ending Date .............. 08/28/2015 15:50:00
  Antecedent Dry Days ...... 8.0
  Report Time Step ......... 00:01:00
  Wet Time Step ............ 00:01:00
  Dry Time Step ............ 00:01:00
  Routing Time Step ........ 5.00 sec
  Variable Time Step ....... YES
  Maximum Trials ........... 8
  Number of Threads ........ 4
  Head Tolerance ........... 0.001500 m
  
  
  **************************        Volume         Depth
  Runoff Quantity Continuity     hectare-m            mm
  **************************     ---------       -------
  Total Precipitation ......         2.606         5.704
  Evaporation Loss .........         0.000         0.000
  Infiltration Loss ........         0.653         1.430
  Surface Runoff ...........         1.076         2.357
  Final Storage ............         0.876         1.918
  Continuity Error (%) .....        -0.018
  
  
  **************************        Volume        Volume
  Flow Routing Continuity        hectare-m      10^6 ltr
  **************************     ---------     ---------
  Dry Weather Inflow .......         0.616         6.165
  Wet Weather Inflow .......         1.076        10.757
  Groundwater Inflow .......         0.000         0.000
  RDII Inflow ..............         0.000         0.000
  External Inflow ..........         0.102         1.024
  External Outflow .........         1.946        19.459
  Flooding Loss ............         0.000         0.000
  Evaporation Loss .........         0.000         0.000
  Exfiltration Loss ........         0.000         0.000
  Initial Stored Volume ....         0.076         0.761
  Final Stored Volume ......         0.286         2.865
  Continuity Error (%) .....       -19.336
  
  
  *************************
  Highest Continuity Errors
  *************************
  Node JK-storage (-92.62%)
  Node HS02004842 (29.23%)
  Node YS02001884 (23.51%)
  Node YS02001774 (13.27%)
  Node YSB1171 (7.25%)
  
  
  ***************************
  Time-Step Critical Elements
  ***************************
  Link WS02006252WS02006251 (52.12%)
  Link 3 (40.70%)
  Link WS02006238WS02006235 (2.33%)
  Link WS02006280WS02006229 (1.72%)
  
  
  ********************************
  Highest Flow Instability Indexes
  ********************************
  Link WS02006113WS02006111 (39)
  Link WS02006111WS02006112 (22)
  Link WS02006110WS02006113 (3)
  Link YS02001655YS02001652 (2)
  Link YS02001652YS02001649 (2)
  
  
  *************************
  Routing Time Step Summary
  *************************
  Minimum Time Step           :     0.50 sec
  Average Time Step           :     0.83 sec
  Maximum Time Step           :     5.00 sec
  Percent in Steady State     :    -0.00
  Average Iterations per Step :     2.11
  Percent Not Converging      :     1.40
  
  
  ***************************
  Subcatchment Runoff Summary
  ***************************
  
  ------------------------------------------------------------------------------------------------------------------------------
                            Total      Total      Total      Total     Imperv       Perv      Total       Total     Peak  Runoff
                           Precip      Runon       Evap      Infil     Runoff     Runoff     Runoff      Runoff   Runoff   Coeff
  Subcatchment                 mm         mm         mm         mm         mm         mm         mm    10^6 ltr      LPS
  ------------------------------------------------------------------------------------------------------------------------------
  sub0                       5.70       0.00       0.00       0.40       4.04       0.00       4.04        0.00     1.41   0.708
  sub1                       5.70       0.00       0.00       0.63       3.82       0.00       3.82        0.03     7.22   0.670
  sub2                       5.70       0.00       0.00       2.11       2.69       0.00       2.69        0.03     6.36   0.471
  sub3                       5.70       0.00       0.00       2.11       2.65       0.00       2.65        0.06    13.02   0.465
  sub4                       5.70       0.00       0.00       0.63       3.69       0.00       3.69        0.08    14.55   0.646
  sub5                       5.70       0.00       0.00       0.40       3.99       0.00       3.99        0.05    12.85   0.700
  sub7                       5.70       0.00       0.00       0.51       3.94       0.00       3.94        0.01     4.57   0.690
  sub8                       5.70       0.00       0.00       0.51       3.93       0.00       3.93        0.03     8.03   0.689
  sub9                       5.70       0.00       0.00       0.51       3.93       0.00       3.93        0.02     5.95   0.688
  sub10                      5.70       0.00       0.00       0.46       3.96       0.00       3.96        0.04    12.84   0.694
  sub11                      5.70       0.00       0.00       0.46       3.97       0.00       3.97        0.05    15.14   0.697
  sub12                      5.70       0.00       0.00       0.74       3.77       0.00       3.77        0.03    12.93   0.662
  sub14                      5.70       0.00       0.00       0.51       3.92       0.00       3.92        0.04    11.63   0.688
  sub15                      5.70       0.00       0.00       1.71       3.02       0.00       3.02        0.05    15.75   0.529
  sub16                      5.70       0.00       0.00       1.88       2.90       0.00       2.90        0.03    11.34   0.509
  sub17                      5.70       0.00       0.00       1.83       2.95       0.00       2.95        0.03     9.14   0.516
  sub22                      5.70       0.00       0.00       2.45       2.46       0.00       2.46        0.16    51.83   0.432
  sub23                      5.70       0.00       0.00       2.11       2.72       0.00       2.72        0.13    44.17   0.478
  sub60                      5.70       0.00       0.00       0.68       2.62       0.00       2.62        0.79    72.66   0.459
  sub61                      5.70       0.00       0.00       0.97       2.81       0.00       2.81        0.87    91.45   0.493
  sub62                      5.70       0.00       0.00       0.46       3.01       0.00       3.01        0.93    93.36   0.528
  sub63                      5.70       0.00       0.00       1.65       2.51       0.00       2.51        0.76    85.50   0.439
  sub64                      5.70       0.00       0.00       0.86       2.50       0.00       2.50        0.76    68.99   0.438
  sub65                      5.70       0.00       0.00       0.74       2.53       0.00       2.53        0.78    69.98   0.444
  sub66                      5.70       0.00       0.00       1.65       2.19       0.00       2.19        0.67    63.30   0.383
  sub67                      5.70       0.00       0.00       0.46       3.32       0.00       3.32        1.02   120.30   0.582
  sub68                      5.70       0.00       0.00       0.80       2.99       0.00       2.99        0.92   101.21   0.525
  sub69                      5.70       0.00       0.00       0.86       3.24       0.00       3.24        0.76   101.03   0.568
  sub70                      5.70       3.31       0.00       3.06       3.95       0.00       3.95        0.90    80.29   0.438
  sub71                      5.70       0.00       0.00       0.46       2.88       0.00       2.88        0.68    65.09   0.504
  sub72                      5.70       0.00       0.00       0.40       2.01       0.00       2.01        0.41    30.49   0.353
  sub73                      5.70       3.84       0.00       3.25       4.00       0.00       4.00        0.94    68.79   0.419
  sub74                      5.70       0.00       0.00       4.28       0.98       0.00       0.98        0.39    56.49   0.171
  
  
  ******************
  Node Depth Summary
  ******************
  
  ---------------------------------------------------------------------------------
                                 Average  Maximum  Maximum  Time of Max    Reported
                                   Depth    Depth      HGL   Occurrence   Max Depth
  Node                 Type       Meters   Meters   Meters  days hr:min      Meters
  ---------------------------------------------------------------------------------
  WS02001211           JUNCTION     0.72     0.79     5.63     0  02:47        0.79
  WS02001212           JUNCTION     0.43     0.50     5.56     0  02:47        0.50
  WS02001213           JUNCTION     0.66     0.75     5.51     0  02:46        0.75
  WS02003069           JUNCTION     0.47     0.57     5.15     0  02:45        0.57
  WS02003072           JUNCTION     0.53     0.62     5.00     0  02:46        0.62
  WS02003073           JUNCTION     0.32     0.38     4.45     0  02:46        0.38
  WS02003060           JUNCTION     0.41     0.50     5.43     0  02:44        0.50
  WS02003066           JUNCTION     0.23     0.29     5.84     0  02:42        0.29
  WS02003059           JUNCTION     0.72     0.80     5.49     0  02:46        0.80
  WS02003067           JUNCTION     0.57     0.68     6.00     0  02:42        0.68
  WS02004401           JUNCTION     0.67     0.82     6.82     0  02:38        0.82
  WS02004402           JUNCTION     0.70     0.84     6.80     0  02:38        0.84
  WS02004403           JUNCTION     0.72     0.86     6.79     0  02:38        0.86
  WS02004404           JUNCTION     0.80     0.93     6.78     0  02:38        0.93
  WS02004406           JUNCTION     0.80     0.93     6.76     0  02:38        0.93
  WS02004409           JUNCTION     0.49     0.63     6.40     0  02:41        0.63
  WS02004410           JUNCTION     0.51     0.65     6.37     0  02:42        0.65
  WS02004411           JUNCTION     0.52     0.66     6.34     0  02:42        0.66
  WS02004412           JUNCTION     0.54     0.67     6.31     0  02:42        0.67
  WS02004413           JUNCTION     0.70     0.83     6.30     0  02:42        0.83
  WS02004405           JUNCTION     0.79     0.93     6.78     0  02:38        0.93
  WS02006109           JUNCTION     0.75     0.92     7.53     0  02:34        0.92
  WS02006110           JUNCTION     0.74     0.89     7.47     0  02:35        0.89
  WS02006111           JUNCTION     0.22     0.27     6.98     0  02:37        0.27
  WS02006112           JUNCTION     0.84     1.00     6.89     0  02:37        1.00
  WS02006113           JUNCTION     0.34     0.43     7.32     0  02:35        0.43
  WS02006115           JUNCTION     0.56     0.71     6.85     0  02:38        0.71
  WS02006116           JUNCTION     0.64     0.79     6.83     0  02:38        0.79
  WS02006230           JUNCTION     0.71     0.94     7.68     0  02:35        0.94
  WS02006231           JUNCTION     0.47     0.61     7.74     0  02:37        0.61
  WS02006232           JUNCTION     0.61     0.74     7.78     0  02:38        0.74
  WS02006234           JUNCTION     0.53     0.67     7.83     0  02:38        0.67
  WS02006235           JUNCTION     0.56     0.70     7.86     0  02:39        0.70
  WS02006238           JUNCTION     0.58     0.72     7.87     0  02:39        0.72
  WS02006240           JUNCTION     0.47     0.61     7.91     0  02:40        0.61
  WS02006242           JUNCTION     0.52     0.66     7.93     0  02:40        0.66
  WS02006243           JUNCTION     0.40     0.53     7.95     0  02:40        0.53
  WS02006245           JUNCTION     0.38     0.50     7.98     0  02:40        0.50
  WS02006247           JUNCTION     0.40     0.51     8.01     0  02:40        0.51
  WS02006248           JUNCTION     0.34     0.44     8.03     0  02:40        0.44
  WS02006249           JUNCTION     0.38     0.47     8.06     0  02:40        0.47
  WS02006239           JUNCTION     0.53     0.68     7.89     0  02:40        0.68
  WS02006251           JUNCTION     0.36     0.44     8.11     0  02:40        0.44
  WS02006252           JUNCTION     0.31     0.35     8.59     0  02:23        0.35
  WS02006253           JUNCTION     0.39     0.47     8.11     0  02:40        0.47
  WS02006256           JUNCTION     1.07     1.20     8.14     0  02:38        1.20
  WS02004138           JUNCTION     0.17     0.19     7.44     0  02:00        0.19
  WS02004407           JUNCTION     0.22     0.28     6.60     0  02:39        0.28
  WS02006228           JUNCTION     0.74     0.94     7.59     0  02:34        0.94
  WS02006229           JUNCTION     0.71     0.93     7.63     0  02:34        0.93
  WS02006280           JUNCTION     0.05     0.14     8.41     0  02:18        0.14
  WS02006284           JUNCTION     0.35     0.48     8.88     0  02:18        0.48
  WS02006287           JUNCTION     0.08     0.21     9.16     0  02:18        0.21
  WSF200               JUNCTION     0.21     0.28     5.52     0  02:42        0.28
  HS02004901           JUNCTION     0.11     0.23    10.05     0  02:16        0.23
  HS02004881           JUNCTION     0.01     0.02     9.05     0  02:17        0.02
  HS02004876           JUNCTION     0.04     0.10     9.13     0  02:16        0.10
  HS02004870           JUNCTION     0.01     0.04     9.33     0  02:18        0.04
  HS02004862           JUNCTION     0.01     0.05     9.43     0  02:19        0.05
  HS02004856           JUNCTION     0.07     0.10     9.53     0  02:18        0.10
  HS02004852           JUNCTION     0.01     0.03     9.54     0  02:19        0.03
  HS02004848           JUNCTION     0.01     0.03     9.63     0  02:17        0.03
  HS02004842           JUNCTION     0.33     0.36     9.63     0  02:17        0.36
  HS02004837           JUNCTION     0.03     0.05     9.63     0  02:17        0.05
  HS02004830           JUNCTION     0.04     0.06     9.53     0  02:18        0.06
  HS02004824           JUNCTION     0.02     0.04     9.44     0  02:21        0.04
  HS02004817           JUNCTION     0.42     0.52     9.37     0  02:19        0.52
  HS02004807           JUNCTION     0.11     0.20     9.37     0  02:19        0.20
  HS02004802           JUNCTION     0.15     0.23     9.36     0  02:19        0.23
  HS02004799           JUNCTION     0.10     0.25     9.46     0  02:17        0.25
  HS02004792           JUNCTION     0.02     0.10     9.62     0  02:16        0.10
  HS02004788           JUNCTION     0.02     0.07     9.97     0  02:17        0.07
  HS02004785           JUNCTION     0.03     0.13    10.03     0  02:16        0.13
  HS02004777           JUNCTION     0.13     0.25    10.05     0  02:16        0.25
  HS02004770           JUNCTION     0.10     0.22    10.05     0  02:16        0.22
  HS02004480           JUNCTION     0.06     0.20     9.44     0  02:17        0.20
  HS02004479           JUNCTION     0.10     0.23     9.44     0  02:17        0.23
  HS02004478           JUNCTION     0.05     0.12     9.35     0  02:18        0.12
  YS02001745           JUNCTION     0.08     0.11     7.63     0  03:01        0.11
  YS02001748           JUNCTION     0.38     0.54     7.61     0  04:55        0.53
  YS02001751           JUNCTION     0.56     0.73     7.61     0  04:43        0.73
  YS02001754           JUNCTION     0.81     1.01     7.62     0  04:48        1.01
  YS02001762           JUNCTION     1.01     1.22     7.62     0  04:46        1.20
  YS02001765           JUNCTION     0.96     1.17     7.62     0  04:46        1.16
  YS02001767           JUNCTION     0.92     1.13     7.62     0  04:46        1.12
  YS02001770           JUNCTION     0.92     1.12     7.61     0  05:12        1.11
  YS02001774           JUNCTION     0.99     1.19     7.61     0  05:14        1.19
  YS02001779           JUNCTION     0.74     0.93     7.62     0  05:05        0.93
  YS02001882           JUNCTION     0.28     0.45     7.16     0  02:52        0.45
  YS02001884           JUNCTION     0.38     0.54     7.16     0  02:53        0.54
  YS02001759           JUNCTION     1.04     1.25     7.61     0  04:46        1.24
  YS02001887           JUNCTION     0.45     0.62     7.16     0  02:53        0.62
  YS02001890           JUNCTION     0.48     0.65     7.16     0  02:53        0.65
  YS02001898           JUNCTION     0.25     0.41     7.14     0  02:54        0.41
  YS02001901           JUNCTION     0.37     0.54     7.14     0  02:54        0.54
  YS02001904           JUNCTION     0.35     0.51     7.14     0  02:54        0.51
  YS02001907           JUNCTION     0.68     0.85     7.14     0  02:55        0.85
  YS02001910           JUNCTION     0.47     0.64     7.14     0  02:55        0.64
  YS02001915           JUNCTION     0.27     0.42     7.14     0  02:54        0.42
  YS02001918           JUNCTION     0.07     0.09     7.16     0  03:03        0.09
  YS02001619           JUNCTION     0.52     0.69     7.62     0  05:04        0.69
  YS02001629           JUNCTION     0.87     1.06     7.61     0  05:10        1.06
  YS02001641           JUNCTION     0.97     1.24     7.68     0  04:43        1.19
  YS02001644           JUNCTION     0.98     1.25     7.68     0  04:43        1.19
  YS02001652           JUNCTION     0.82     1.03     7.62     0  04:58        1.02
  YS02001655           JUNCTION     0.59     0.77     7.62     0  05:17        0.77
  YS02001920           JUNCTION     0.17     0.20     7.21     0  03:02        0.20
  YS02001923           JUNCTION     0.06     0.08     7.34     0  03:02        0.08
  YS02001926           JUNCTION     0.14     0.17     7.62     0  03:01        0.17
  YS02001929           JUNCTION     0.06     0.08     7.78     0  03:01        0.08
  YS02001658           JUNCTION     0.32     0.47     7.61     0  04:51        0.47
  YS02001661           JUNCTION     0.15     0.22     7.62     0  05:19        0.22
  YS02001664           JUNCTION     0.07     0.11     8.04     0  02:45        0.11
  YS02001622           JUNCTION     0.54     0.71     7.61     0  05:11        0.70
  YS02001633           JUNCTION     0.96     1.22     7.68     0  04:43        1.16
  YS02001649           JUNCTION     1.02     1.24     7.63     0  04:43        1.22
  YS02001757           JUNCTION     1.14     1.34     7.60     0  04:59        1.34
  YS02001895           JUNCTION     0.25     0.41     7.15     0  02:53        0.41
  YS02001625           JUNCTION     0.82     1.01     7.62     0  04:51        1.01
  YS02163301           JUNCTION     0.90     1.13     7.65     0  04:43        1.10
  YS02163601           JUNCTION     1.01     1.28     7.68     0  04:43        1.22
  YS02164001           JUNCTION     0.95     1.23     7.68     0  04:43        1.16
  YS02001647           JUNCTION     0.81     1.09     7.70     0  04:43        1.02
  YSB1154              JUNCTION     0.24     0.38     9.44     0  02:17        0.38
  YSB6556              JUNCTION     0.13     0.27     9.44     0  02:17        0.27
  YSB1174              JUNCTION     0.19     0.33     9.44     0  02:17        0.33
  YSB1171              JUNCTION     0.39     0.53     9.44     0  02:17        0.53
  YS02006553           JUNCTION     0.68     0.86     7.14     0  02:54        0.86
  YS02006561           JUNCTION     0.14     0.22     6.88     0  02:54        0.22
  YS02006556           JUNCTION     0.66     0.83     7.14     0  02:54        0.83
  YS02006558           JUNCTION     0.70     0.87     7.14     0  02:54        0.87
  YS02001783           JUNCTION     0.24     0.39     6.53     0  02:54        0.39
  YS02001784           JUNCTION     0.27     0.42     6.49     0  02:55        0.42
  YS02001786           JUNCTION     0.23     0.36     6.39     0  02:55        0.36
  YS02001788           JUNCTION     0.17     0.27     6.24     0  02:55        0.27
  YS02001790           JUNCTION     0.20     0.32     5.97     0  02:56        0.32
  YS02001791           JUNCTION     0.13     0.21     5.68     0  02:56        0.21
  YS02001793           JUNCTION     0.09     0.14     4.97     0  02:56        0.14
  WS02004139           JUNCTION     0.67     0.73     5.64     0  02:48        0.73
  WSC                  OUTFALL      0.32     0.38     1.05     0  02:47        0.38
  3                    OUTFALL      0.10     0.20     6.20     0  02:38        0.20
  4                    OUTFALL      0.00     0.00     7.00     0  00:00        0.00
  5                    OUTFALL      0.00     0.00     5.00     0  00:00        0.00
  JK-storage           STORAGE      0.03     3.00     3.80     0  00:00        2.70
  CC-storage           STORAGE      0.39     0.58     7.58     0  05:16        0.58
  XR-storage           STORAGE      1.16     5.58     3.58     0  01:50        5.58
  
  
  *******************
  Node Inflow Summary
  *******************
  
  -------------------------------------------------------------------------------------------------
                                  Maximum  Maximum                  Lateral       Total        Flow
                                  Lateral    Total  Time of Max      Inflow      Inflow     Balance
                                   Inflow   Inflow   Occurrence      Volume      Volume       Error
  Node                 Type           LPS      LPS  days hr:min    10^6 ltr    10^6 ltr     Percent
  -------------------------------------------------------------------------------------------------
  WS02001211           JUNCTION      7.35   387.91     0  02:59       0.207        8.35       0.447
  WS02001212           JUNCTION      0.00   388.18     0  02:59           0        8.32       0.251
  WS02001213           JUNCTION      0.00   388.43     0  02:58           0        8.29       0.277
  WS02003069           JUNCTION      0.32   892.91     0  02:45     0.00902        15.6       0.201
  WS02003072           JUNCTION      0.00   892.90     0  02:45           0        15.6       0.243
  WS02003073           JUNCTION      1.82   894.73     0  02:46      0.0514        15.6       0.275
  WS02003060           JUNCTION     16.53   892.58     0  02:44       0.466        15.6       0.189
  WS02003066           JUNCTION      0.00   490.31     0  02:42           0        6.91       0.065
  WS02003059           JUNCTION      0.00   388.86     0  03:18           0        8.27       0.476
  WS02003067           JUNCTION      0.00   490.29     0  02:42           0        6.92       0.137
  WS02004401           JUNCTION      0.00   492.99     0  02:38           0        7.16       0.306
  WS02004402           JUNCTION      0.00   492.63     0  02:38           0        7.14       0.288
  WS02004403           JUNCTION      0.00   492.42     0  02:38           0        7.12       0.262
  WS02004404           JUNCTION      0.16   492.41     0  02:38     0.00457         7.1       0.197
  WS02004406           JUNCTION      0.00   492.42     0  02:38           0        7.07       0.480
  WS02004409           JUNCTION      0.00   492.12     0  02:39           0        7.03       0.239
  WS02004410           JUNCTION      0.00   491.21     0  02:40           0        7.01       0.269
  WS02004411           JUNCTION      0.00   490.76     0  02:41           0        6.99       0.276
  WS02004412           JUNCTION      0.00   490.48     0  02:42           0        6.97       0.297
  WS02004413           JUNCTION      0.00   490.35     0  02:42           0        6.95       0.439
  WS02004405           JUNCTION      0.04   492.40     0  02:38     0.00107        7.09       0.294
  WS02006109           JUNCTION      1.23   489.40     0  02:34      0.0347        7.26       0.301
  WS02006110           JUNCTION      0.00   489.40     0  02:34           0        7.24       0.278
  WS02006111           JUNCTION      0.00   505.44     0  02:35           0        7.21       0.059
  WS02006112           JUNCTION      9.14   497.71     0  02:37      0.0252        7.23       0.409
  WS02006113           JUNCTION      0.00   489.52     0  02:35           0        7.22       0.143
  WS02006115           JUNCTION      0.00   494.70     0  02:37           0         7.2       0.287
  WS02006116           JUNCTION      0.00   493.55     0  02:37           0        7.18       0.272
  WS02006230           JUNCTION     10.28   346.32     0  02:50        0.29        6.39       0.233
  WS02006231           JUNCTION      0.00   335.33     0  02:51           0        6.11       0.155
  WS02006232           JUNCTION      0.00   335.21     0  02:51           0        6.13       0.267
  WS02006234           JUNCTION      0.00   334.77     0  02:51           0        6.14       0.132
  WS02006235           JUNCTION      0.00   334.52     0  02:50           0        6.18       0.180
  WS02006238           JUNCTION      0.00   228.75     0  02:45           0        3.94       0.201
  WS02006240           JUNCTION      0.00   227.84     0  02:44           0        3.93       0.308
  WS02006242           JUNCTION      0.00   227.32     0  02:44           0        3.94       0.371
  WS02006243           JUNCTION      0.00   226.78     0  02:42           0        3.94       0.140
  WS02006245           JUNCTION      0.00   229.84     0  02:28           0        3.94       0.217
  WS02006247           JUNCTION      0.00   231.81     0  02:28           0        3.95       0.175
  WS02006248           JUNCTION      0.00   232.93     0  02:28           0        3.95       0.104
  WS02006249           JUNCTION      0.00   234.23     0  02:27           0        3.96       0.263
  WS02006239           JUNCTION      0.00   228.36     0  02:44           0        3.94       0.303
  WS02006251           JUNCTION      0.08   235.55     0  02:25     0.00217        3.97       0.221
  WS02006252           JUNCTION      0.00   200.00     0  02:23           0        3.83       0.011
  WS02006253           JUNCTION      1.41    40.03     0  02:17     0.00327       0.144       2.651
  WS02006256           JUNCTION      0.00   600.00     0  02:38           0        6.21       0.051
  WS02004138           JUNCTION      0.00   380.00     0  02:00           0        8.18       0.056
  WS02004407           JUNCTION      0.00   492.24     0  02:39           0        7.04       0.108
  WS02006228           JUNCTION      0.00   488.17     0  02:34           0        7.24       0.213
  WS02006229           JUNCTION      0.00   488.18     0  02:34           0        7.25       0.175
  WS02006280           JUNCTION      0.00   205.87     0  02:18           0       0.877       0.008
  WS02006284           JUNCTION      0.10   205.86     0  02:18      0.0027       0.878       0.121
  WS02006287           JUNCTION      0.00   205.73     0  02:18           0       0.876       0.083
  WSF200               JUNCTION      0.00   490.30     0  02:42           0        6.91       0.062
  HS02004901           JUNCTION     11.34    11.34     0  02:10      0.0304      0.0305       6.108
  HS02004881           JUNCTION      4.57    38.96     0  02:17      0.0133       0.139       0.226
  HS02004876           JUNCTION      7.22    34.72     0  02:18      0.0254       0.127       0.418
  HS02004870           JUNCTION      8.03    27.65     0  02:18      0.0251       0.101       0.105
  HS02004862           JUNCTION      6.56    20.17     0  02:18      0.0307      0.0763       0.222
  HS02004856           JUNCTION      5.95    13.67     0  02:17      0.0189      0.0471       3.151
  HS02004852           JUNCTION      0.00     8.10     0  02:18           0      0.0283       0.179
  HS02004848           JUNCTION     13.02    13.02     0  02:20      0.0597      0.0597       0.073
  HS02004842           JUNCTION      0.00     5.38     0  02:30           0      0.0445      41.302
  HS02004837           JUNCTION     19.19    23.75     0  02:17       0.223       0.254       0.320
  HS02004830           JUNCTION      0.15    23.88     0  02:17     0.00423       0.245       0.507
  HS02004824           JUNCTION     14.60    38.30     0  02:21      0.0782       0.322       0.168
  HS02004817           JUNCTION      0.60    38.89     0  02:21      0.0169       0.338       5.187
  HS02004807           JUNCTION     15.14    52.63     0  02:19      0.0461       0.367       1.163
  HS02004802           JUNCTION      0.00    52.91     0  02:21           0       0.363       1.133
  HS02004799           JUNCTION     11.63   130.55     0  02:16      0.0373       0.454       0.501
  HS02004792           JUNCTION     52.11   119.20     0  02:15       0.163       0.417       0.099
  HS02004788           JUNCTION     17.42    69.42     0  02:16      0.0989       0.254       0.154
  HS02004785           JUNCTION      0.15    52.42     0  02:16     0.00423       0.158       0.307
  HS02004777           JUNCTION      0.03    52.75     0  02:14    0.000846       0.158       3.391
  HS02004770           JUNCTION     44.17    54.12     0  02:12        0.13       0.159       1.991
  HS02004480           JUNCTION      0.00   153.85     0  02:17           0       0.529       0.137
  HS02004479           JUNCTION      0.00    23.83     0  02:18           0      0.0877       0.838
  HS02004478           JUNCTION      0.00   205.72     0  02:18           0       0.877       0.071
  YS02001745           JUNCTION     72.67    72.67     0  03:01       0.793       0.793       0.106
  YS02001748           JUNCTION      0.04    91.42     0  04:19     0.00127       0.818       0.612
  YS02001751           JUNCTION      0.01   158.92     0  03:00     0.00031       0.814       1.595
  YS02001754           JUNCTION      0.26   101.92     0  03:05     0.00733       0.785       2.561
  YS02001762           JUNCTION      0.00   132.66     0  03:01           0       0.863       2.429
  YS02001765           JUNCTION      0.00   120.15     0  03:08           0       0.864       2.722
  YS02001767           JUNCTION      0.54   153.54     0  03:10      0.0151       0.884       3.951
  YS02001770           JUNCTION     93.52   160.40     0  03:06       0.929        1.01       2.995
  YS02001774           JUNCTION      0.00    82.24     0  03:06           0       0.185      15.302
  YS02001779           JUNCTION      0.01    62.95     0  03:06    0.000141      0.0833      17.044
  YS02001882           JUNCTION      0.00     4.11     0  02:08           0     0.00514      47.597
  YS02001884           JUNCTION      0.00    11.70     0  02:08           0      0.0206      30.729
  YS02001759           JUNCTION     91.49   219.08     0  03:01       0.867         1.7       1.339
  YS02001887           JUNCTION    120.75   120.75     0  02:43        1.04        1.05       0.684
  YS02001890           JUNCTION      0.00   120.07     0  02:45           0        1.02       0.768
  YS02001898           JUNCTION      0.00   119.52     0  02:47           0        1.01       0.213
  YS02001901           JUNCTION      0.00   119.40     0  02:49           0        1.01       0.544
  YS02001904           JUNCTION      0.00   118.81     0  02:49           0        1.01       0.506
  YS02001907           JUNCTION      0.00   215.97     0  02:56           0        2.16       1.027
  YS02001910           JUNCTION      0.00    98.78     0  03:01           0        1.16       0.877
  YS02001915           JUNCTION     65.11    98.18     0  03:01       0.679        1.17       0.388
  YS02001918           JUNCTION      0.00    33.35     0  03:02           0       0.488       0.226
  YS02001619           JUNCTION     63.30    63.30     0  02:59        0.67        0.67       0.870
  YS02001629           JUNCTION      0.00   105.90     0  03:03           0       0.623       2.901
  YS02001641           JUNCTION      0.00   156.17     0  03:07           0        1.32       1.566
  YS02001644           JUNCTION     69.03   221.28     0  03:07       0.761        2.05       1.251
  YS02001652           JUNCTION      0.00   114.68     0  02:59           0       0.749       2.624
  YS02001655           JUNCTION      0.15   153.80     0  02:55     0.00434       0.781       1.870
  YS02001920           JUNCTION      2.87    33.37     0  03:02      0.0809       0.491       0.413
  YS02001923           JUNCTION      0.04    30.50     0  03:01     0.00106        0.41       0.072
  YS02001926           JUNCTION      0.05    30.53     0  03:01     0.00147       0.411       0.517
  YS02001929           JUNCTION     30.49    30.49     0  03:01        0.41        0.41       0.070
  YS02001658           JUNCTION      0.00    98.93     0  04:11           0       0.795       0.635
  YS02001661           JUNCTION      0.00    85.50     0  02:45           0       0.772       0.096
  YS02001664           JUNCTION     85.50    85.50     0  02:45       0.758       0.758       0.021
  YS02001622           JUNCTION      0.00    92.34     0  03:02           0       0.669       2.550
  YS02001633           JUNCTION     70.18   156.11     0  03:09       0.784        1.37       2.208
  YS02001649           JUNCTION      0.00   335.09     0  03:03           0        2.71       1.339
  YS02001757           JUNCTION      0.00   547.19     0  03:04           0        5.08       1.841
  YS02001895           JUNCTION      0.00   119.57     0  02:45           0        1.02       0.366
  YS02001625           JUNCTION      0.00    95.54     0  03:20           0       0.656       5.123
  YS02163301           JUNCTION      0.00    97.42     0  03:14           0        0.61       3.734
  YS02163601           JUNCTION      0.11   164.91     0  03:03      0.0031        1.34       2.248
  YS02164001           JUNCTION      0.00   165.24     0  03:03           0        1.32       1.414
  YS02001647           JUNCTION      0.00   214.26     0  03:07           0        2.01       1.224
  YSB1154              JUNCTION     12.85    12.85     0  02:15      0.0452      0.0466       3.195
  YSB6556              JUNCTION      0.00    12.79     0  02:17           0      0.0477       2.683
  YSB1174              JUNCTION     12.93    12.93     0  02:09       0.033       0.034       3.923
  YSB1171              JUNCTION      0.00    23.82     0  02:16           0      0.0872       7.814
  YS02006553           JUNCTION      0.00   216.03     0  02:57           0        2.15       0.666
  YS02006561           JUNCTION      0.00   317.02     0  02:54           0        3.04       0.021
  YS02006556           JUNCTION      0.00   216.16     0  03:02           0        2.16       0.481
  YS02006558           JUNCTION    102.09   317.03     0  02:54       0.945        3.07       0.147
  YS02001783           JUNCTION      0.00   317.01     0  02:54           0        3.04       0.050
  YS02001784           JUNCTION      1.06   318.08     0  02:55      0.0299        3.07       0.082
  YS02001786           JUNCTION      0.06   318.11     0  02:55     0.00159        3.07       0.079
  YS02001788           JUNCTION      0.07   318.18     0  02:55       0.002        3.07       0.046
  YS02001790           JUNCTION      0.15   318.33     0  02:56     0.00437        3.07       0.057
  YS02001791           JUNCTION      0.00   318.32     0  02:56           0        3.07       0.028
  YS02001793           JUNCTION      0.00   318.32     0  02:56           0        3.07       0.013
  WS02004139           JUNCTION      0.32   380.32     0  02:00     0.00905        8.18       0.465
  WSC                  OUTFALL       0.00   894.75     0  02:47           0        15.5       0.000
  3                    OUTFALL       0.00   496.10     0  02:38           0        3.94       0.000
  4                    OUTFALL       0.00     0.00     0  00:00           0           0       0.000 ltr
  5                    OUTFALL       0.00     0.00     0  00:00           0           0       0.000 ltr
  JK-storage           STORAGE       0.00   318.32     0  02:56           0        3.22     -48.086
  CC-storage           STORAGE       0.00   535.19     0  03:04           0        4.98       0.485
  XR-storage           STORAGE     317.88   317.88     0  02:54        6.97        7.57      -7.445
  
  
  **********************
  Node Surcharge Summary
  **********************
  
  Surcharging occurs when water rises above the top of the highest conduit.
  ---------------------------------------------------------------------
                                               Max. Height   Min. Depth
                                   Hours       Above Crown    Below Rim
  Node                 Type      Surcharged         Meters       Meters
  ---------------------------------------------------------------------
  WS02006109           JUNCTION        0.89          0.096        1.724
  WS02006112           JUNCTION        0.10          0.003        1.677
  WS02006232           JUNCTION        0.61          0.043        1.437
  WS02006238           JUNCTION        0.11          0.003        1.427
  WS02006228           JUNCTION        0.86          0.112        2.088
  YS02001762           JUNCTION        5.05          0.217        0.933
  YS02001765           JUNCTION        4.05          0.171        0.929
  YS02001767           JUNCTION        3.19          0.129        0.901
  YS02001770           JUNCTION        2.42          0.085        0.835
  YS02001774           JUNCTION        4.84          0.187        0.863
  YS02001759           JUNCTION        5.13          0.247        0.963
  YS02001641           JUNCTION        4.60          0.241        0.859
  YS02001644           JUNCTION        4.70          0.250        0.670
  YS02001633           JUNCTION        3.48          0.204        0.856
  YS02001649           JUNCTION        5.08          0.239        0.811
  YS02001757           JUNCTION        5.30          0.343        0.867
  YS02001625           JUNCTION        0.03          0.014        0.766
  YS02163301           JUNCTION        2.62          0.135        0.895
  YS02163601           JUNCTION        5.07          0.285        0.795
  YS02164001           JUNCTION        3.88          0.226        0.874
  YS02001647           JUNCTION        0.11          0.088        0.812
  
  
  *********************
  Node Flooding Summary
  *********************
  
  No nodes were flooded.
  
  
  **********************
  Storage Volume Summary
  **********************
  
  --------------------------------------------------------------------------------------------------
                         Average     Avg  Evap Exfil       Maximum     Max    Time of Max    Maximum
                          Volume    Pcnt  Pcnt  Pcnt        Volume    Pcnt     Occurrence    Outflow
  Storage Unit           1000 m3    Full  Loss  Loss       1000 m3    Full    days hr:min        LPS
  --------------------------------------------------------------------------------------------------
  JK-storage               0.002       1     0     0         0.151      52       0  00:00     600.00
  CC-storage               1.075       7     0     0         1.628      10       0  05:16     200.00
  XR-storage               0.139      15     0     0         0.670      72       0  01:50     380.00
  
  
  ***********************
  Outfall Loading Summary
  ***********************
  
  -----------------------------------------------------------
                         Flow       Avg       Max       Total
                         Freq      Flow      Flow      Volume
  Outfall Node           Pcnt       LPS       LPS    10^6 ltr
  -----------------------------------------------------------
  WSC                   99.99    654.81    894.75      15.522
  3                     94.96    204.82    496.10       3.937
  4                      0.00      0.00      0.00       0.000
  5                      0.00      0.00      0.00       0.000
  -----------------------------------------------------------
  System                48.74    859.62   1389.39      19.459
  
  
  ********************
  Link Flow Summary
  ********************
  
  -----------------------------------------------------------------------------
                                 Maximum  Time of Max   Maximum    Max/    Max/
                                  |Flow|   Occurrence   |Veloc|    Full    Full
  Link                 Type          LPS  days hr:min     m/sec    Flow   Depth
  -----------------------------------------------------------------------------
  WS02003066WSF200     CONDUIT    490.30     0  02:42      2.74    0.08    0.22
  WS02006287WS02006284 CONDUIT    205.76     0  02:18      1.62    0.10    0.22
  WS02006284WS02006280 CONDUIT    205.87     0  02:18      1.86    0.09    0.20
  WS02006280WS02006229 CONDUIT    205.87     0  02:18      3.00    0.04    0.14
  WS02006229WS02006228 CONDUIT    488.17     0  02:34      0.97    1.62    1.00
  WS02006256WS02006235 CONDUIT    166.25     0  00:01      2.58    1.76    1.00
  WS02006253WS02006251 CONDUIT     40.14     0  02:18      0.49    0.12    0.65
  WS02006252WS02006251 CONDUIT    200.49     0  02:23      1.97    0.74    0.76
  WS02006251WS02006249 CONDUIT    234.23     0  02:27      0.97    0.68    0.65
  WS02006249WS02006248 CONDUIT    232.93     0  02:28      1.05    1.28    0.63
  WS02006248WS02006247 CONDUIT    231.81     0  02:28      1.01    0.50    0.67
  WS02006247WS02006245 CONDUIT    229.84     0  02:28      0.97    1.82    0.71
  WS02006245WS02006243 CONDUIT    226.78     0  02:42      1.01    0.67    0.73
  WS02006243WS02006242 CONDUIT    227.32     0  02:44      0.82    0.49    0.84
  WS02006242WS02006240 CONDUIT    227.84     0  02:44      0.69    0.90    0.91
  WS02006240WS02006239 CONDUIT    228.36     0  02:44      0.69    0.72    0.90
  WS02006239WS02006238 CONDUIT    228.75     0  02:45      0.67    0.73    0.99
  WS02006238WS02006235 CONDUIT    228.94     0  02:45      1.25    0.51    1.00
  WS02006235WS02006234 CONDUIT    334.77     0  02:51      0.94    3.53    0.96
  WS02006234WS02006232 CONDUIT    335.21     0  02:51      1.13    0.68    0.98
  WS02006232WS02006231 CONDUIT    335.33     0  02:51      0.94    0.70    0.93
  WS02006231WS02006230 CONDUIT    336.04     0  02:50      1.29    5.10    0.84
  WS02006230WS02006229 CONDUIT    347.30     0  02:50      0.90    7.73    1.00
  WS02006228WS02006109 CONDUIT    488.17     0  02:34      0.97    2.13    1.00
  WS02006116WS02004401 CONDUIT    492.99     0  02:38      0.73    0.68    0.80
  WS02006115WS02006116 CONDUIT    493.55     0  02:37      0.82    0.63    0.72
  WS02006113WS02006111 CONDUIT    505.44     0  02:35      2.38    0.61    0.44
  WS02006112WS02006115 CONDUIT    494.70     0  02:37      0.70    0.29    0.85
  WS02006111WS02006112 CONDUIT    493.22     0  02:37      1.39    0.23    0.66
  WS02006110WS02006113 CONDUIT    489.52     0  02:35      1.18    0.45    0.77
  WS02006109WS02006110 CONDUIT    489.40     0  02:34      0.98    0.94    0.98
  WS02004411WS02004412 CONDUIT    490.48     0  02:42      0.88    0.70    0.67
  WS02004401WS02004402 CONDUIT    492.63     0  02:38      0.77    0.59    0.83
  WS02004413WS02003067 CONDUIT    490.29     0  02:42      1.06    0.21    0.57
  WS02004412WS02004413 CONDUIT    490.35     0  02:42      0.77    0.33    0.75
  WS02004410WS02004411 CONDUIT    490.76     0  02:41      0.90    0.67    0.66
  WS02004409WS02004410 CONDUIT    491.21     0  02:40      0.93    0.64    0.64
  WS02004407WS02004409 CONDUIT    492.12     0  02:39      1.42    0.17    0.46
  WS02004406WS02004407 CONDUIT    492.24     0  02:39      0.99    0.22    0.61
  WS02004405WS02004406 CONDUIT    492.42     0  02:38      0.66    0.97    0.93
  WS02004404WS02004405 CONDUIT    492.36     0  02:38      0.84    4.82    0.93
  WS02004403WS02004404 CONDUIT    492.24     0  02:38      0.74    0.36    0.90
  WS02004402WS02004403 CONDUIT    492.42     0  02:38      0.75    0.71    0.85
  WS02004139WS02001211 CONDUIT    380.56     0  02:59      0.69    0.48    0.59
  WS02004138WS02004139 CONDUIT    380.00     0  02:00      2.94    0.08    0.44
  WS02003067WS02003066 CONDUIT    490.31     0  02:42      1.15    0.16    0.40
  WS02001213WS02003059 CONDUIT    388.86     0  03:18      0.68    0.64    0.76
  WS02001212WS02001213 CONDUIT    388.43     0  02:58      1.32    0.60    0.46
  WS02001211WS02001212 CONDUIT    388.18     0  02:59      0.78    0.30    0.64
  WS02003072WS02003073 CONDUIT    892.91     0  02:46      1.70    1.93    0.47
  WS02003069WS02003072 CONDUIT    892.90     0  02:45      1.60    0.43    0.50
  WS02003060WS02003069 CONDUIT    892.59     0  02:45      1.84    0.35    0.44
  WS02003059WS02003060 CONDUIT    389.45     0  03:17      0.93    0.25    0.65
  HS02004901HS02004770 CONDUIT     10.34     0  02:15      0.05    0.04    0.32
  HS02004876HS02004881 CONDUIT     34.79     0  02:18      0.56    0.37    0.09
  HS02004870HS02004876 CONDUIT     27.63     0  02:18      0.39    0.02    0.10
  HS02004842HS02004848 CONDUIT      5.38     0  02:30      0.03    0.00    0.27
  HS02004837HS02004842 CONDUIT      5.56     0  02:31      0.41    0.00    0.29
  HS02004830HS02004837 CONDUIT     23.73     0  02:17      0.44    0.02    0.08
  HS02004824HS02004830 CONDUIT     23.88     0  02:18      0.48    0.03    0.07
  HS02004817HS02004824 CONDUIT     38.29     0  02:21      0.17    0.02    0.40
  HS02004770HS02004777 CONDUIT     52.72     0  02:14      0.23    0.10    0.33
  HS02004799HS02004480 CONDUIT    130.35     0  02:16      0.59    0.16    0.31
  HS02004792HS02004799 CONDUIT    119.14     0  02:16      0.68    0.07    0.25
  HS02004788HS02004792 CONDUIT     69.36     0  02:17      0.83    0.05    0.12
  HS02004785HS02004788 CONDUIT     52.33     0  02:17      0.51    0.39    0.15
  HS02004777HS02004785 CONDUIT     52.27     0  02:16      0.27    0.06    0.27
  HS02004480HS02004478 CONDUIT    153.82     0  02:17      0.96    0.65    0.23
  HS02004479HS02004480 CONDUIT     24.06     0  02:20      0.16    0.02    0.31
  HS02004862HS02004870 CONDUIT     20.13     0  02:19      0.47    0.02    0.06
  HS02004848HS02004852 CONDUIT      8.10     0  02:18      0.31    0.01    0.04
  HS02004856HS02004862 CONDUIT     13.63     0  02:18      0.34    0.01    0.06
  HS02004852HS02004856 CONDUIT      8.06     0  02:19      0.12    0.01    0.09
  HS02004802HS02004478 CONDUIT     53.30     0  02:22      0.30    0.05    0.26
  HS02004478WS02006287 CONDUIT    205.73     0  02:18      1.32    0.06    0.17
  HS02004817HS02004807 CONDUIT     39.45     0  02:23      0.11    0.02    0.51
  HS02004807HS02004802 CONDUIT     52.91     0  02:21      0.25    0.10    0.30
  YS02001759YS02001757 CONDUIT    222.03     0  03:01      0.28    0.16    1.00
  YS02001762YS02001759 CONDUIT    129.52     0  03:01      0.17    0.15    1.00
  YS02001765YS02001762 CONDUIT    132.66     0  03:01      0.23    0.12    1.00
  YS02001770YS02001767 CONDUIT    153.00     0  03:10      0.34    0.61    1.00
  YS02001774YS02001770 CONDUIT     82.24     0  03:06      0.14    0.05    1.00
  YS02001779YS02001774 CONDUIT     64.76     0  03:04      0.09    0.03    0.96
  YS02001649YS02001757 CONDUIT    328.96     0  03:05      0.42    0.20    1.00
  YS02001767YS02001765 CONDUIT    120.15     0  03:08      0.26    0.15    1.00
  YS02006561YS02001783 CONDUIT    317.01     0  02:54      1.79    0.16    0.38
  YS02001783YS02001784 CONDUIT    317.02     0  02:55      1.24    0.44    0.51
  YS02001784YS02001785 CONDUIT    318.06     0  02:55      1.32    0.74    0.48
  YS02001788YS02001790 CONDUIT    318.17     0  02:56      1.88    0.23    0.37
  YS02001790YS02001791 CONDUIT    318.32     0  02:56      2.17    0.35    0.33
  YS02001791YS02001793 CONDUIT    318.32     0  02:56      3.97    0.14    0.22
  YS02001910YS02001907 CONDUIT     98.88     0  03:01      0.49    0.06    0.74
  YS02001786YS02001788 CONDUIT    318.10     0  02:55      1.75    0.61    0.39
  YS02001915YS02001910 CONDUIT     98.78     0  03:01      0.44    0.05    0.53
  YS02001918YS02001915 CONDUIT     33.33     0  03:03      0.44    0.02    0.26
  YS02001923YS02001920 CONDUIT     30.50     0  03:02      0.45    0.01    0.14
  YS02001926YS02001923 CONDUIT     30.47     0  03:01      0.49    0.04    0.13
  YS02001929YS02001926 CONDUIT     30.48     0  03:01      0.52    0.01    0.13
  YS02001920YS02001918 CONDUIT     33.35     0  03:02      0.46    0.03    0.15
  YS02001629YS02163301 CONDUIT     97.42     0  03:14      0.13    0.12    1.00
  YS02001619YS02001622 CONDUIT     92.34     0  03:02      0.66    0.14    0.69
  YS02001622YS02001625 CONDUIT     95.54     0  03:20      0.25    0.05    0.85
  YS02001625YS02001629 CONDUIT    105.90     0  03:03      0.25    0.05    0.84
  YS02163301YS02001633 CONDUIT     90.32     0  03:09      0.12    0.08    1.00
  YS02163601YS02164001 CONDUIT    165.24     0  03:03      0.21    0.15    1.00
  YS02164001YS02001641 CONDUIT    156.17     0  03:07      0.20    0.21    1.00
  YS02001641YS02001644 CONDUIT    155.35     0  03:07      0.20    0.50    1.00
  YS02001647YS02001649 CONDUIT    237.36     0  03:04      0.31    0.13    1.00
  YS02006553YS02006556 CONDUIT    216.16     0  03:02      0.31    0.18    0.82
  YS02006556YS02006558 CONDUIT    216.38     0  03:02      0.31    0.17    0.85
  YSB6556YSB1171       CONDUIT     13.00     0  02:19      0.06    0.01    0.57
  YS02001907YS02006553 CONDUIT    216.03     0  02:57      0.26    0.25    0.93
  YS02006558YS02006561 CONDUIT    317.02     0  02:54      2.29    0.70    0.49
  YS02001633YS02163601 CONDUIT    164.80     0  03:03      0.21    0.17    1.00
  YS02001644YS02001647 CONDUIT    214.26     0  03:07      0.28    0.13    1.00
  YS02001745YS02001748 CONDUIT     72.66     0  03:01      1.40    0.03    0.27
  YS02001748YS02001751 CONDUIT    158.91     0  03:00      1.09    0.08    0.62
  YS02001751YS02001754 CONDUIT    101.66     0  03:05      0.97    0.05    0.85
  YS02001754YS02001757 CONDUIT    140.39     0  03:03      0.33    0.06    1.00
  YS02001882YS02001884 CONDUIT      4.11     0  02:08      0.06    0.00    0.46
  YS02001884YS02001887 CONDUIT     11.70     0  02:08      0.06    0.02    0.56
  YS02001890YS02001895 CONDUIT    119.57     0  02:45      0.29    0.06    0.53
  YS02001895YS02001898 CONDUIT    119.52     0  02:47      0.49    0.21    0.39
  YS02001898YS02001901 CONDUIT    119.40     0  02:49      0.33    0.08    0.47
  YS02001901YS02001904 CONDUIT    118.81     0  02:49      0.29    0.18    0.52
  YS02001904YS02001907 CONDUIT    119.00     0  02:51      0.21    0.04    0.68
  YS02001887YS02001890 CONDUIT    120.07     0  02:45      0.24    0.21    0.61
  YS02001652YS02001649 CONDUIT    145.33     0  02:56      0.33    0.07    1.00
  YS02001655YS02001652 CONDUIT    114.68     0  02:59      1.05    0.06    0.88
  YS02001658YS02001655 CONDUIT    153.65     0  02:55      1.26    0.07    0.61
  YS02001661YS02001658 CONDUIT     85.50     0  02:45      1.45    0.03    0.30
  YS02001664YS02001661 CONDUIT     85.50     0  02:45      1.11    0.03    0.15
  YSB1154YSB6556       CONDUIT     12.79     0  02:17      0.19    0.02    0.46
  YSB1174YSB1171       CONDUIT     11.96     0  02:11      0.06    0.02    0.58
  YSB1171HS02004479    CONDUIT     23.83     0  02:18      0.54    0.02    0.45
  HS02004881HS02006253 CONDUIT     38.95     0  02:18      1.66    0.01    0.11
  YS02001793JiankangQianchi CONDUIT    318.32     0  02:56     13.24    0.03    0.50
  YS02001757CaochengTiaoxuchi CONDUIT    535.19     0  03:04      1.14    0.24    0.79
  WSF200WS02003060     CONDUIT    490.38     0  02:43      1.53    0.11    0.33
  1                    CONDUIT    894.75     0  02:47      3.23    0.31    0.38
  2                    CONDUIT      0.00     0  00:00      0.00    0.00    0.00
  3                    CONDUIT    496.10     0  02:38      9.77    0.79    0.68
  4                    CONDUIT      0.00     0  00:00      0.00    0.00    0.00
  CC-Pump-1            PUMP       200.00     0  04:30              1.00
  CC-Pump-2            PUMP       200.00     0  02:23              1.00
  JK-Pump-1            PUMP       300.00     0  00:00              1.00
  JK-Pump-2            PUMP       300.00     0  02:38              1.00
  XR-Pump-1            PUMP        95.00     0  00:00              1.00
  XR-Pump-2            PUMP        95.00     0  02:00              1.00
  XR-Pump-3            PUMP        95.00     0  00:00              1.00
  XR-Pump-4            PUMP        95.00     0  02:00              1.00
  
  
  ***************************
  Flow Classification Summary
  ***************************
  
  -------------------------------------------------------------------------------------
                      Adjusted    ---------- Fraction of Time in Flow Class ---------- 
                       /Actual         Up    Down  Sub   Sup   Up    Down  Norm  Inlet 
  Conduit               Length    Dry  Dry   Dry   Crit  Crit  Crit  Crit  Ltd   Ctrl  
  -------------------------------------------------------------------------------------
  WS02003066WSF200        1.00   0.06  0.00  0.00  0.00  0.94  0.00  0.00  0.73  0.00
  WS02006287WS02006284    1.00   0.04  0.01  0.00  0.67  0.28  0.00  0.00  0.77  0.00
  WS02006284WS02006280    1.00   0.04  0.00  0.00  0.00  0.00  0.00  0.96  0.00  0.00
  WS02006280WS02006229    1.00   0.04  0.00  0.00  0.00  0.00  0.00  0.96  0.00  0.00
  WS02006229WS02006228    1.00   0.00  0.00  0.00  0.99  0.00  0.00  0.01  0.00  0.00
  WS02006256WS02006235    1.00   0.00  0.00  0.00  1.00  0.00  0.00  0.00  0.00  0.00
  WS02006253WS02006251    1.00   0.03  0.01  0.00  0.96  0.00  0.00  0.00  0.00  0.00
  WS02006252WS02006251    1.00   0.08  0.00  0.00  0.00  0.00  0.92  0.00  0.00  0.00
  WS02006251WS02006249    1.00   0.00  0.00  0.00  1.00  0.00  0.00  0.00  0.27  0.00
  WS02006249WS02006248    1.00   0.00  0.02  0.00  0.90  0.00  0.08  0.00  0.00  0.00
  WS02006248WS02006247    1.00   0.02  0.00  0.00  0.98  0.00  0.00  0.00  0.17  0.00
  WS02006247WS02006245    1.00   0.02  0.00  0.00  0.98  0.00  0.00  0.00  0.00  0.00
  WS02006245WS02006243    1.00   0.01  0.00  0.00  0.94  0.00  0.00  0.04  0.01  0.00
  WS02006243WS02006242    1.00   0.01  0.00  0.00  0.99  0.00  0.00  0.00  0.26  0.00
  WS02006242WS02006240    1.00   0.00  0.00  0.00  1.00  0.00  0.00  0.00  0.00  0.00
  WS02006240WS02006239    1.00   0.00  0.00  0.00  0.96  0.00  0.00  0.04  0.01  0.00
  WS02006239WS02006238    1.00   0.00  0.00  0.00  1.00  0.00  0.00  0.00  0.00  0.00
  WS02006238WS02006235    1.00   0.00  0.00  0.00  1.00  0.00  0.00  0.00  0.00  0.00
  WS02006235WS02006234    1.00   0.00  0.00  0.00  0.95  0.00  0.05  0.00  0.00  0.00
  WS02006234WS02006232    1.00   0.00  0.00  0.00  1.00  0.00  0.00  0.00  0.16  0.00
  WS02006232WS02006231    1.00   0.00  0.00  0.00  0.99  0.00  0.00  0.00  0.00  0.00
  WS02006231WS02006230    1.00   0.00  0.00  0.00  0.38  0.00  0.62  0.00  0.00  0.00
  WS02006230WS02006229    1.00   0.00  0.00  0.00  0.99  0.00  0.00  0.01  0.01  0.00
  WS02006228WS02006109    1.00   0.00  0.00  0.00  1.00  0.00  0.00  0.00  0.00  0.00
  WS02006116WS02004401    1.00   0.02  0.00  0.00  0.98  0.00  0.00  0.00  0.00  0.00
  WS02006115WS02006116    1.00   0.02  0.00  0.00  0.97  0.00  0.00  0.01  0.00  0.00
  WS02006113WS02006111    1.00   0.02  0.00  0.00  0.00  0.98  0.00  0.00  0.10  0.00
  WS02006112WS02006115    1.00   0.02  0.00  0.00  0.97  0.00  0.00  0.00  0.00  0.00
  WS02006111WS02006112    1.00   0.02  0.00  0.00  0.98  0.00  0.00  0.00  0.98  0.00
  WS02006110WS02006113    1.00   0.01  0.01  0.00  0.98  0.00  0.00  0.00  0.00  0.00
  WS02006109WS02006110    1.00   0.00  0.01  0.00  0.98  0.00  0.01  0.00  0.00  0.00
  WS02004411WS02004412    1.00   0.04  0.00  0.00  0.96  0.00  0.00  0.00  0.00  0.00
  WS02004401WS02004402    1.00   0.03  0.00  0.00  0.97  0.00  0.00  0.00  0.00  0.00
  WS02004413WS02003067    1.00   0.04  0.01  0.00  0.00  0.00  0.95  0.00  0.00  0.00
  WS02004412WS02004413    1.00   0.04  0.00  0.00  0.96  0.00  0.00  0.00  0.03  0.00
  WS02004410WS02004411    1.00   0.04  0.00  0.00  0.96  0.00  0.00  0.00  0.04  0.00
  WS02004409WS02004410    1.00   0.04  0.00  0.00  0.96  0.00  0.00  0.00  0.04  0.00
  WS02004407WS02004409    1.00   0.04  0.00  0.00  0.96  0.00  0.00  0.00  0.89  0.00
  WS02004406WS02004407    1.00   0.00  0.04  0.00  0.96  0.00  0.00  0.00  0.00  0.00
  WS02004405WS02004406    1.00   0.00  0.00  0.00  1.00  0.00  0.00  0.00  0.00  0.00
  WS02004404WS02004405    1.00   0.00  0.00  0.00  1.00  0.00  0.00  0.00  0.00  0.00
  WS02004403WS02004404    1.00   0.00  0.03  0.00  0.97  0.00  0.00  0.00  0.01  0.00
  WS02004402WS02004403    1.00   0.03  0.00  0.00  0.97  0.00  0.00  0.00  0.00  0.00
  WS02004139WS02001211    1.00   0.00  0.00  0.00  1.00  0.00  0.00  0.00  0.00  0.00
  WS02004138WS02004139    1.00   0.00  0.00  0.00  0.99  0.01  0.00  0.00  1.00  0.00
  WS02003067WS02003066    1.00   0.05  0.00  0.00  0.94  0.00  0.00  0.00  0.00  0.00
  WS02001213WS02003059    1.00   0.00  0.00  0.00  0.99  0.00  0.00  0.00  0.00  0.00
  WS02001212WS02001213    1.00   0.00  0.00  0.00  0.93  0.00  0.06  0.00  0.00  0.00
  WS02001211WS02001212    1.00   0.00  0.00  0.00  1.00  0.00  0.00  0.00  0.00  0.00
  WS02003072WS02003073    1.00   0.00  0.00  0.00  0.00  0.00  0.00  1.00  0.00  0.00
  WS02003069WS02003072    1.00   0.00  0.00  0.00  0.99  0.01  0.00  0.00  0.23  0.00
  WS02003060WS02003069    1.00   0.00  0.00  0.00  0.99  0.01  0.00  0.00  0.20  0.00
  WS02003059WS02003060    1.00   0.00  0.00  0.00  1.00  0.00  0.00  0.00  0.01  0.00
  HS02004901HS02004770    1.00   0.04  0.00  0.00  0.96  0.00  0.00  0.00  0.03  0.00
  HS02004876HS02004881    1.00   0.02  0.00  0.00  0.98  0.00  0.00  0.00  0.00  0.00
  HS02004870HS02004876    1.00   0.01  0.00  0.00  0.99  0.00  0.00  0.00  0.95  0.00
  HS02004842HS02004848    1.00   0.00  0.04  0.00  0.96  0.00  0.00  0.00  0.69  0.00
  HS02004837HS02004842    1.00   0.00  0.00  0.00  0.99  0.01  0.00  0.00  0.11  0.00
  HS02004830HS02004837    1.00   0.00  0.00  0.00  1.00  0.00  0.00  0.00  0.99  0.00
  HS02004824HS02004830    1.00   0.00  0.00  0.00  1.00  0.00  0.00  0.00  0.00  0.00
  HS02004817HS02004824    1.00   0.00  0.00  0.00  1.00  0.00  0.00  0.00  1.00  0.00
  HS02004770HS02004777    1.00   0.00  0.04  0.00  0.96  0.00  0.00  0.00  0.07  0.00
  HS02004799HS02004480    1.00   0.00  0.02  0.00  0.94  0.00  0.03  0.00  0.00  0.00
  HS02004792HS02004799    1.00   0.00  0.00  0.00  0.99  0.01  0.00  0.00  0.98  0.00
  HS02004788HS02004792    1.00   0.00  0.00  0.00  0.99  0.01  0.00  0.00  0.98  0.00
  HS02004785HS02004788    1.00   0.00  0.00  0.00  1.00  0.00  0.00  0.00  0.00  0.00
  HS02004777HS02004785    1.00   0.00  0.00  0.00  1.00  0.00  0.00  0.00  0.21  0.00
  HS02004480HS02004478    1.00   0.05  0.00  0.00  0.72  0.00  0.00  0.24  0.00  0.00
  HS02004479HS02004480    1.00   0.03  0.00  0.00  0.97  0.00  0.00  0.00  0.16  0.00
  HS02004862HS02004870    1.00   0.00  0.00  0.00  1.00  0.00  0.00  0.00  0.05  0.00
  HS02004848HS02004852    1.00   0.04  0.00  0.00  0.96  0.00  0.00  0.00  0.71  0.00
  HS02004856HS02004862    1.00   0.00  0.07  0.00  0.93  0.00  0.00  0.00  0.74  0.00
  HS02004852HS02004856    1.00   0.04  0.01  0.00  0.95  0.00  0.00  0.00  0.83  0.00
  HS02004802HS02004478    1.00   0.04  0.01  0.00  0.95  0.00  0.00  0.00  0.01  0.00
  HS02004478WS02006287    1.00   0.05  0.00  0.00  0.87  0.08  0.00  0.00  0.77  0.00
  HS02004817HS02004807    1.00   0.00  0.04  0.00  0.96  0.00  0.00  0.00  0.00  0.00
  HS02004807HS02004802    1.00   0.04  0.00  0.00  0.95  0.00  0.00  0.00  0.01  0.00
  YS02001759YS02001757    1.00   0.00  0.00  0.00  1.00  0.00  0.00  0.00  0.17  0.00
  YS02001762YS02001759    1.00   0.00  0.00  0.00  1.00  0.00  0.00  0.00  0.05  0.00
  YS02001765YS02001762    1.00   0.00  0.00  0.00  1.00  0.00  0.00  0.00  0.22  0.00
  YS02001770YS02001767    1.00   0.00  0.00  0.00  1.00  0.00  0.00  0.00  0.00  0.00
  YS02001774YS02001770    1.00   0.00  0.05  0.00  0.95  0.00  0.00  0.00  0.07  0.00
  YS02001779YS02001774    1.00   0.00  0.00  0.00  1.00  0.00  0.00  0.00  0.26  0.00
  YS02001649YS02001757    1.00   0.00  0.00  0.00  1.00  0.00  0.00  0.00  0.19  0.00
  YS02001767YS02001765    1.00   0.00  0.00  0.00  1.00  0.00  0.00  0.00  0.01  0.00
  YS02006561YS02001783    1.00   0.07  0.00  0.00  0.00  0.93  0.00  0.00  0.73  0.00
  YS02001783YS02001784    1.00   0.00  0.07  0.00  0.93  0.00  0.00  0.00  0.00  0.00
  YS02001784YS02001785    1.00   0.00  0.00  0.00  1.00  0.00  0.00  0.00  0.25  0.00
  YS02001788YS02001790    1.00   0.00  0.00  0.00  0.07  0.93  0.00  0.00  0.77  0.00
  YS02001790YS02001791    1.00   0.00  0.00  0.00  0.02  0.98  0.00  0.00  0.54  0.00
  YS02001791YS02001793    1.00   0.00  0.00  0.00  0.00  1.00  0.00  0.00  0.00  0.00
  YS02001910YS02001907    1.00   0.00  0.00  0.00  0.97  0.00  0.00  0.02  0.13  0.00
  YS02001786YS02001788    1.00   0.00  0.00  0.00  0.07  0.93  0.00  0.00  0.00  0.00
  YS02001915YS02001910    1.00   0.00  0.00  0.00  0.99  0.01  0.00  0.00  0.24  0.00
  YS02001918YS02001915    1.00   0.00  0.01  0.00  0.98  0.01  0.00  0.00  0.81  0.00
  YS02001923YS02001920    1.00   0.00  0.00  0.00  1.00  0.00  0.00  0.00  1.00  0.00
  YS02001926YS02001923    1.00   0.00  0.03  0.00  0.00  0.00  0.97  0.00  0.00  0.00
  YS02001929YS02001926    1.00   0.00  0.04  0.00  0.96  0.00  0.00  0.00  0.87  0.00
  YS02001920YS02001918    1.00   0.00  0.01  0.00  0.99  0.00  0.00  0.00  0.00  0.00
  YS02001629YS02163301    1.00   0.06  0.00  0.00  0.94  0.00  0.00  0.00  0.00  0.00
  YS02001619YS02001622    1.00   0.04  0.00  0.00  0.96  0.00  0.00  0.00  0.00  0.00
  YS02001622YS02001625    1.00   0.04  0.00  0.00  0.96  0.00  0.00  0.00  0.13  0.00
  YS02001625YS02001629    1.00   0.04  0.02  0.00  0.91  0.00  0.02  0.00  0.00  0.00
  YS02163301YS02001633    1.00   0.00  0.06  0.00  0.94  0.00  0.00  0.00  0.00  0.00
  YS02163601YS02164001    1.00   0.00  0.03  0.00  0.97  0.00  0.00  0.00  0.00  0.00
  YS02164001YS02001641    1.00   0.01  0.03  0.00  0.97  0.00  0.00  0.00  0.07  0.00
  YS02001641YS02001644    1.00   0.00  0.01  0.00  0.99  0.00  0.00  0.00  0.00  0.00
  YS02001647YS02001649    1.00   0.00  0.06  0.00  0.93  0.00  0.00  0.00  0.01  0.00
  YS02006553YS02006556    1.00   0.01  0.00  0.00  0.99  0.00  0.00  0.00  0.03  0.00
  YS02006556YS02006558    1.00   0.00  0.00  0.00  1.00  0.00  0.00  0.00  0.00  0.00
  YSB6556YSB1171          1.00   0.03  0.01  0.00  0.96  0.00  0.00  0.00  0.00  0.00
  YS02001907YS02006553    1.00   0.00  0.02  0.00  0.98  0.00  0.00  0.00  0.00  0.00
  YS02006558YS02006561    1.00   0.07  0.00  0.00  0.00  0.93  0.00  0.00  0.72  0.00
  YS02001633YS02163601    1.00   0.00  0.01  0.00  0.99  0.00  0.00  0.00  0.20  0.00
  YS02001644YS02001647    1.00   0.00  0.07  0.00  0.93  0.00  0.00  0.00  0.00  0.00
  YS02001745YS02001748    1.00   0.00  0.00  0.00  0.85  0.02  0.00  0.13  0.63  0.00
  YS02001748YS02001751    1.00   0.00  0.00  0.00  0.97  0.03  0.00  0.00  0.24  0.00
  YS02001751YS02001754    1.00   0.00  0.00  0.00  0.93  0.00  0.00  0.07  0.02  0.00
  YS02001754YS02001757    1.00   0.00  0.00  0.00  0.99  0.01  0.00  0.00  0.26  0.00
  YS02001882YS02001884    1.00   0.06  0.00  0.00  0.94  0.00  0.00  0.00  0.00  0.00
  YS02001884YS02001887    1.00   0.03  0.01  0.00  0.96  0.00  0.00  0.00  0.00  0.00
  YS02001890YS02001895    1.00   0.00  0.06  0.00  0.94  0.00  0.00  0.00  0.00  0.00
  YS02001895YS02001898    1.00   0.06  0.00  0.00  0.93  0.00  0.01  0.00  0.00  0.00
  YS02001898YS02001901    1.00   0.06  0.00  0.00  0.94  0.00  0.00  0.00  0.02  0.00
  YS02001901YS02001904    1.00   0.06  0.00  0.00  0.94  0.00  0.00  0.00  0.00  0.00
  YS02001904YS02001907    1.00   0.00  0.06  0.00  0.94  0.00  0.00  0.00  0.00  0.00
  YS02001887YS02001890    1.00   0.00  0.00  0.00  0.97  0.00  0.02  0.00  0.00  0.00
  YS02001652YS02001649    1.00   0.00  0.00  0.00  1.00  0.00  0.00  0.00  0.26  0.00
  YS02001655YS02001652    1.00   0.00  0.00  0.00  0.93  0.00  0.00  0.07  0.02  0.00
  YS02001658YS02001655    1.00   0.00  0.05  0.00  0.92  0.03  0.00  0.00  0.11  0.00
  YS02001661YS02001658    1.00   0.05  0.00  0.00  0.85  0.10  0.00  0.00  0.46  0.00
  YS02001664YS02001661    1.00   0.04  0.00  0.00  0.74  0.22  0.00  0.00  0.86  0.00
  YSB1154YSB6556          1.00   0.04  0.00  0.00  0.96  0.00  0.00  0.00  0.02  0.00
  YSB1174YSB1171          1.00   0.03  0.01  0.00  0.96  0.00  0.00  0.00  0.00  0.00
  YSB1171HS02004479       1.00   0.03  0.00  0.00  0.97  0.00  0.00  0.00  0.13  0.00
  HS02004881HS02006253    1.00   0.03  0.00  0.00  0.87  0.01  0.00  0.09  0.67  0.00
  YS02001793JiankangQianchi    1.00   0.00  0.00  0.00  0.02  0.98  0.00  0.00  0.02  0.00
  YS02001757CaochengTiaoxuchi    1.00   0.00  0.08  0.00  0.92  0.00  0.00  0.00  0.00  0.00
  WSF200WS02003060        1.00   0.00  0.06  0.00  0.94  0.00  0.00  0.00  0.34  0.00
  1                       1.00   0.00  0.00  0.00  0.00  1.00  0.00  0.00  0.18  0.00
  2                       1.00   1.00  0.00  0.00  0.00  0.00  0.00  0.00  0.00  0.00
  3                       1.00   0.05  0.00  0.00  0.00  0.95  0.00  0.00  0.26  0.00
  4                       1.00   1.00  0.00  0.00  0.00  0.00  0.00  0.00  0.00  0.00
  
  
  *************************
  Conduit Surcharge Summary
  *************************
  
  ----------------------------------------------------------------------------
                                                           Hours        Hours 
                         --------- Hours Full --------   Above Full   Capacity
  Conduit                Both Ends  Upstream  Dnstream   Normal Flow   Limited
  ----------------------------------------------------------------------------
  WS02006229WS02006228        0.86      0.92      0.86      5.28         0.86
  WS02006256WS02006235        5.72      5.72      6.55      5.80         0.01
  WS02006249WS02006248        0.01      0.01      0.01      5.15         0.01
  WS02006247WS02006245        0.01      0.01      0.01      5.26         0.01
  WS02006239WS02006238        0.01      0.01      0.11      0.01         0.01
  WS02006238WS02006235        0.01      0.01      0.36      0.01         0.01
  WS02006235WS02006234        0.01      0.01      0.01      5.74         0.01
  WS02006234WS02006232        0.01      0.01      0.61      0.01         0.01
  WS02006232WS02006231        0.01      0.01      0.61      0.01         0.01
  WS02006231WS02006230        0.01      0.01      0.01      5.73         0.01
  WS02006230WS02006229        1.50      4.64      1.50      5.82         1.50
  WS02006228WS02006109        0.89      1.10      0.89      5.49         0.89
  WS02006112WS02006115        0.01      0.01      0.09      0.01         0.01
  WS02006111WS02006112        0.01      0.01      5.24      0.01         0.01
  WS02006110WS02006113        0.01      0.01      0.99      0.01         0.01
  WS02006109WS02006110        0.01      0.01      1.10      0.01         0.01
  WS02004404WS02004405        0.01      0.01      0.01      5.61         0.01
  WS02003072WS02003073        0.01      0.01      0.01      5.52         0.01
  YS02001759YS02001757        5.13      5.13      5.30      0.01         0.01
  YS02001762YS02001759        5.05      5.05      5.13      0.01         0.01
  YS02001765YS02001762        4.05      4.05      5.05      0.01         0.01
  YS02001770YS02001767        3.04      3.04      3.18      0.01         0.22
  YS02001774YS02001770        2.42      2.42      4.84      0.01         0.01
  YS02001779YS02001774        0.01      0.01      4.84      0.01         0.01
  YS02001649YS02001757        5.08      5.08      5.30      0.01         0.01
  YS02001767YS02001765        3.18      3.18      4.05      0.01         0.01
  YS02001629YS02163301        2.04      2.04      2.62      0.01         0.01
  YS02001622YS02001625        0.01      0.01      0.03      0.01         0.01
  YS02001625YS02001629        0.01      0.01      0.03      0.01         0.01
  YS02163301YS02001633        2.62      2.62      4.08      0.01         0.01
  YS02163601YS02164001        3.88      3.88      5.07      0.01         0.01
  YS02164001YS02001641        3.88      3.88      4.60      0.01         0.01
  YS02001641YS02001644        4.58      4.60      4.69      0.01         0.33
  YS02001647YS02001649        0.11      0.11      5.08      0.01         0.01
  YS02001633YS02163601        3.48      3.48      5.07      0.01         0.01
  YS02001644YS02001647        0.11      0.11      4.69      0.01         0.01
  YS02001754YS02001757        0.06      0.06      5.30      0.01         0.01
  YS02001652YS02001649        0.44      0.44      5.08      0.01         0.01
  YS02001793JiankangQianchi        0.01      0.01      0.09      0.01         0.01
  YS02001757CaochengTiaoxuchi        0.01      0.01      5.30      0.01         0.01
  
  
  ***************
  Pumping Summary
  ***************
  
  ---------------------------------------------------------------------------------------------------------
                                                  Min       Avg       Max     Total     Power    % Time Off
                        Percent   Number of      Flow      Flow      Flow    Volume     Usage    Pump Curve
  Pump                 Utilized   Start-Ups       LPS       LPS       LPS  10^6 ltr     Kw-hr    Low   High
  ---------------------------------------------------------------------------------------------------------
  CC-Pump-1               44.68           1      0.00    195.88    200.00     2.460      7.09    0.0    0.0
  CC-Pump-2               25.95           1      0.00    189.91    200.00     1.372      4.94    0.0   49.8
  JK-Pump-1              100.00           1      0.00    153.00    300.00     3.223     63.04    0.0    0.0
  JK-Pump-2               76.59           1      0.00    153.20    300.00     2.982     59.05    0.0    0.0
  XR-Pump-1              100.00           1      0.00     92.82     95.00     2.622     52.48    0.0    0.0
  XR-Pump-2               34.03           1      0.00     91.72     95.00     0.855     16.67    0.0    0.0
  XR-Pump-3              100.00           1      0.00     95.00     95.00     2.679     53.94    0.0    0.0
  XR-Pump-4               76.59           1      0.00     94.78     95.00     2.023     46.62    0.0    0.0
  

  Analysis begun on:  Tue Dec 21 18:59:53 2021
  Analysis ended on:  Tue Dec 21 18:59:56 2021
  Total elapsed time: 00:00:03