
  EPA STORM WATER MANAGEMENT MODEL - VERSION 5.1 (Build 5.3.0.dev0)
  --------------------------------------------------------------

  WARNING 04: minimum elevation drop used for Conduit WS02004404WS02004405
  WARNING 03: negative offset ignored for Link YS02001904YS02001907
  
  *********************************************************
  NOTE: The summary statistics displayed in this report are
  based on results found at every computational time step,  
  not just on results from each reporting time step.
  *********************************************************
  
  ****************
  Analysis Options
  ****************
  Flow Units ............... LPS
  Process Models:
    Rainfall/Runoff ........ YES
    RDII ................... NO
    Snowmelt ............... NO
    Groundwater ............ NO
    Flow Routing ........... YES
    Ponding Allowed ........ NO
    Water Quality .......... NO
  Infiltration Method ...... HORTON
  Flow Routing Method ...... DYNWAVE
  Surcharge Method ......... EXTRAN
  Starting Date ............ 08/28/2015 08:00:00
  Ending Date .............. 08/28/2015 15:50:00
  Antecedent Dry Days ...... 8.0
  Report Time Step ......... 00:01:00
  Wet Time Step ............ 00:01:00
  Dry Time Step ............ 00:01:00
  Routing Time Step ........ 5.00 sec
  Variable Time Step ....... YES
  Maximum Trials ........... 8
  Number of Threads ........ 4
  Head Tolerance ........... 0.001500 m
  
  
  **************************        Volume         Depth
  Runoff Quantity Continuity     hectare-m            mm
  **************************     ---------       -------
  Total Precipitation ......         2.813         6.158
  Evaporation Loss .........         0.000         0.000
  Infiltration Loss ........         0.708         1.549
  Surface Runoff ...........         1.211         2.652
  Final Storage ............         0.894         1.957
  Continuity Error (%) .....        -0.018
  
  
  **************************        Volume        Volume
  Flow Routing Continuity        hectare-m      10^6 ltr
  **************************     ---------     ---------
  Dry Weather Inflow .......         0.616         6.165
  Wet Weather Inflow .......         1.211        12.107
  Groundwater Inflow .......         0.000         0.000
  RDII Inflow ..............         0.000         0.000
  External Inflow ..........         0.102         1.024
  External Outflow .........         2.041        20.413
  Flooding Loss ............         0.000         0.000
  Evaporation Loss .........         0.000         0.000
  Exfiltration Loss ........         0.000         0.000
  Initial Stored Volume ....         0.076         0.761
  Final Stored Volume ......         0.344         3.441
  Continuity Error (%) .....       -18.937
  
  
  *************************
  Highest Continuity Errors
  *************************
  Node JK-storage (-87.82%)
  Node HS02004842 (27.70%)
  Node YS02001884 (21.86%)
  Node YS02001774 (13.40%)
  Node YSB1171 (6.63%)
  
  
  ***************************
  Time-Step Critical Elements
  ***************************
  Link WS02006252WS02006251 (47.90%)
  Link 3 (46.38%)
  Link WS02006280WS02006229 (1.62%)
  
  
  ********************************
  Highest Flow Instability Indexes
  ********************************
  Link WS02006113WS02006111 (37)
  Link WS02006111WS02006112 (22)
  Link YS02006558YS02006561 (17)
  Link YS02006561YS02001783 (10)
  Link YS02001629YS02163301 (8)
  
  
  *************************
  Routing Time Step Summary
  *************************
  Minimum Time Step           :     0.23 sec
  Average Time Step           :     0.82 sec
  Maximum Time Step           :     5.00 sec
  Percent in Steady State     :    -0.00
  Average Iterations per Step :     2.75
  Percent Not Converging      :     9.35
  
  
  ***************************
  Subcatchment Runoff Summary
  ***************************
  
  ------------------------------------------------------------------------------------------------------------------------------
                            Total      Total      Total      Total     Imperv       Perv      Total       Total     Peak  Runoff
                           Precip      Runon       Evap      Infil     Runoff     Runoff     Runoff      Runoff   Runoff   Coeff
  Subcatchment                 mm         mm         mm         mm         mm         mm         mm    10^6 ltr      LPS
  ------------------------------------------------------------------------------------------------------------------------------
  sub0                       6.16       0.00       0.00       0.43       4.46       0.00       4.46        0.00     1.63   0.725
  sub1                       6.16       0.00       0.00       0.68       4.23       0.00       4.23        0.03     8.33   0.686
  sub2                       6.16       0.00       0.00       2.28       2.97       0.00       2.97        0.03     7.33   0.483
  sub3                       6.16       0.00       0.00       2.28       2.94       0.00       2.94        0.07    14.99   0.477
  sub4                       6.16       0.00       0.00       0.68       4.09       0.00       4.09        0.09    16.74   0.664
  sub5                       6.16       0.00       0.00       0.43       4.42       0.00       4.42        0.05    14.82   0.717
  sub7                       6.16       0.00       0.00       0.55       4.35       0.00       4.35        0.01     5.28   0.706
  sub8                       6.16       0.00       0.00       0.55       4.34       0.00       4.34        0.03     9.28   0.705
  sub9                       6.16       0.00       0.00       0.55       4.34       0.00       4.34        0.02     6.88   0.704
  sub10                      6.16       0.00       0.00       0.49       4.37       0.00       4.37        0.05    14.82   0.710
  sub11                      6.16       0.00       0.00       0.49       4.39       0.00       4.39        0.05    17.48   0.713
  sub12                      6.16       0.00       0.00       0.80       4.17       0.00       4.17        0.04    14.98   0.677
  sub14                      6.16       0.00       0.00       0.55       4.34       0.00       4.34        0.04    13.43   0.704
  sub15                      6.16       0.00       0.00       1.85       3.33       0.00       3.33        0.06    18.19   0.541
  sub16                      6.16       0.00       0.00       2.03       3.21       0.00       3.21        0.03    13.11   0.521
  sub17                      6.16       0.00       0.00       1.97       3.25       0.00       3.25        0.03    10.58   0.528
  sub22                      6.16       0.00       0.00       2.65       2.72       0.00       2.72        0.17    59.90   0.442
  sub23                      6.16       0.00       0.00       2.28       3.01       0.00       3.01        0.14    51.08   0.489
  sub60                      6.16       0.00       0.00       0.74       2.96       0.00       2.96        0.90    83.90   0.481
  sub61                      6.16       0.00       0.00       1.05       3.16       0.00       3.16        0.97   105.37   0.513
  sub62                      6.16       0.00       0.00       0.49       3.39       0.00       3.39        1.04   107.63   0.550
  sub63                      6.16       0.00       0.00       1.79       2.81       0.00       2.81        0.85    98.45   0.456
  sub64                      6.16       0.00       0.00       0.92       2.83       0.00       2.83        0.86    79.70   0.459
  sub65                      6.16       0.00       0.00       0.80       2.86       0.00       2.86        0.88    80.88   0.465
  sub66                      6.16       0.00       0.00       1.79       2.47       0.00       2.47        0.76    73.04   0.401
  sub67                      6.16       0.00       0.00       0.49       3.72       0.00       3.72        1.15   138.48   0.603
  sub68                      6.16       0.00       0.00       0.86       3.36       0.00       3.36        1.03   116.57   0.545
  sub69                      6.16       0.00       0.00       0.92       3.61       0.00       3.61        0.84   116.22   0.587
  sub70                      6.16       3.69       0.00       3.35       4.46       0.00       4.46        1.02    93.64   0.453
  sub71                      6.16       0.00       0.00       0.49       3.24       0.00       3.24        0.77    75.09   0.527
  sub72                      6.16       0.00       0.00       0.43       2.30       0.00       2.30        0.47    35.50   0.374
  sub73                      6.16       4.34       0.00       3.57       4.56       0.00       4.56        1.07    80.50   0.434
  sub74                      6.16       0.00       0.00       4.62       1.09       0.00       1.09        0.44    64.97   0.177
  
  
  ******************
  Node Depth Summary
  ******************
  
  ---------------------------------------------------------------------------------
                                 Average  Maximum  Maximum  Time of Max    Reported
                                   Depth    Depth      HGL   Occurrence   Max Depth
  Node                 Type       Meters   Meters   Meters  days hr:min      Meters
  ---------------------------------------------------------------------------------
  WS02001211           JUNCTION     0.73     0.79     5.63     0  02:44        0.79
  WS02001212           JUNCTION     0.44     0.50     5.57     0  02:43        0.50
  WS02001213           JUNCTION     0.67     0.75     5.52     0  02:43        0.75
  WS02003069           JUNCTION     0.47     0.57     5.16     0  02:42        0.57
  WS02003072           JUNCTION     0.54     0.63     5.00     0  02:42        0.63
  WS02003073           JUNCTION     0.32     0.39     4.45     0  02:43        0.39
  WS02003060           JUNCTION     0.42     0.51     5.44     0  02:41        0.51
  WS02003066           JUNCTION     0.23     0.29     5.85     0  02:39        0.29
  WS02003059           JUNCTION     0.72     0.80     5.49     0  02:42        0.80
  WS02003067           JUNCTION     0.58     0.69     6.01     0  02:39        0.69
  WS02004401           JUNCTION     0.68     0.83     6.83     0  02:35        0.83
  WS02004402           JUNCTION     0.71     0.86     6.82     0  02:35        0.86
  WS02004403           JUNCTION     0.73     0.88     6.81     0  02:35        0.88
  WS02004404           JUNCTION     0.80     0.95     6.80     0  02:35        0.95
  WS02004406           JUNCTION     0.81     0.94     6.77     0  02:35        0.94
  WS02004409           JUNCTION     0.50     0.65     6.42     0  02:38        0.65
  WS02004410           JUNCTION     0.52     0.67     6.39     0  02:38        0.67
  WS02004411           JUNCTION     0.53     0.68     6.36     0  02:38        0.68
  WS02004412           JUNCTION     0.55     0.68     6.32     0  02:39        0.68
  WS02004413           JUNCTION     0.70     0.85     6.32     0  02:39        0.85
  WS02004405           JUNCTION     0.80     0.94     6.79     0  02:35        0.94
  WS02006109           JUNCTION     0.76     0.94     7.56     0  02:31        0.94
  WS02006110           JUNCTION     0.75     0.90     7.49     0  02:31        0.90
  WS02006111           JUNCTION     0.22     0.28     6.99     0  02:32        0.28
  WS02006112           JUNCTION     0.85     1.03     6.91     0  02:36        1.03
  WS02006113           JUNCTION     0.34     0.44     7.34     0  02:32        0.44
  WS02006115           JUNCTION     0.57     0.73     6.87     0  02:35        0.73
  WS02006116           JUNCTION     0.65     0.81     6.85     0  02:34        0.81
  WS02006230           JUNCTION     0.72     0.97     7.72     0  02:32        0.97
  WS02006231           JUNCTION     0.48     0.64     7.77     0  02:33        0.64
  WS02006232           JUNCTION     0.62     0.77     7.81     0  02:34        0.77
  WS02006234           JUNCTION     0.54     0.70     7.86     0  02:35        0.70
  WS02006235           JUNCTION     0.57     0.73     7.89     0  02:36        0.73
  WS02006238           JUNCTION     0.59     0.75     7.90     0  02:36        0.75
  WS02006240           JUNCTION     0.48     0.65     7.94     0  02:37        0.65
  WS02006242           JUNCTION     0.53     0.70     7.97     0  02:37        0.70
  WS02006243           JUNCTION     0.41     0.57     7.99     0  02:37        0.57
  WS02006245           JUNCTION     0.39     0.53     8.02     0  02:37        0.53
  WS02006247           JUNCTION     0.41     0.54     8.04     0  02:37        0.54
  WS02006248           JUNCTION     0.35     0.47     8.06     0  02:38        0.47
  WS02006249           JUNCTION     0.39     0.49     8.09     0  02:38        0.49
  WS02006239           JUNCTION     0.54     0.71     7.92     0  02:36        0.71
  WS02006251           JUNCTION     0.37     0.46     8.13     0  02:37        0.46
  WS02006252           JUNCTION     0.32     0.35     8.59     0  02:20        0.35
  WS02006253           JUNCTION     0.40     0.49     8.13     0  02:37        0.49
  WS02006256           JUNCTION     1.08     1.21     8.14     0  02:36        1.21
  WS02004138           JUNCTION     0.18     0.19     7.44     0  02:00        0.19
  WS02004407           JUNCTION     0.22     0.29     6.60     0  02:36        0.29
  WS02006228           JUNCTION     0.75     0.98     7.63     0  02:31        0.98
  WS02006229           JUNCTION     0.73     0.97     7.66     0  02:31        0.97
  WS02006280           JUNCTION     0.06     0.15     8.42     0  02:17        0.15
  WS02006284           JUNCTION     0.35     0.49     8.89     0  02:17        0.49
  WS02006287           JUNCTION     0.08     0.22     9.18     0  02:17        0.22
  WSF200               JUNCTION     0.21     0.29     5.53     0  02:39        0.29
  HS02004901           JUNCTION     0.11     0.24    10.06     0  02:15        0.24
  HS02004881           JUNCTION     0.01     0.03     9.05     0  02:16        0.03
  HS02004876           JUNCTION     0.04     0.10     9.13     0  02:14        0.10
  HS02004870           JUNCTION     0.01     0.04     9.33     0  02:17        0.04
  HS02004862           JUNCTION     0.01     0.05     9.43     0  02:18        0.05
  HS02004856           JUNCTION     0.07     0.11     9.53     0  02:17        0.11
  HS02004852           JUNCTION     0.01     0.03     9.54     0  02:18        0.03
  HS02004848           JUNCTION     0.01     0.03     9.63     0  02:16        0.03
  HS02004842           JUNCTION     0.33     0.36     9.63     0  02:16        0.36
  HS02004837           JUNCTION     0.03     0.05     9.63     0  02:16        0.05
  HS02004830           JUNCTION     0.04     0.06     9.53     0  02:17        0.06
  HS02004824           JUNCTION     0.02     0.04     9.44     0  02:20        0.04
  HS02004817           JUNCTION     0.43     0.53     9.38     0  02:17        0.53
  HS02004807           JUNCTION     0.11     0.21     9.38     0  02:17        0.21
  HS02004802           JUNCTION     0.15     0.25     9.37     0  02:17        0.25
  HS02004799           JUNCTION     0.10     0.27     9.48     0  02:15        0.27
  HS02004792           JUNCTION     0.02     0.10     9.63     0  02:15        0.10
  HS02004788           JUNCTION     0.02     0.08     9.98     0  02:16        0.08
  HS02004785           JUNCTION     0.04     0.14    10.04     0  02:15        0.14
  HS02004777           JUNCTION     0.13     0.26    10.06     0  02:15        0.26
  HS02004770           JUNCTION     0.10     0.23    10.06     0  02:15        0.23
  HS02004480           JUNCTION     0.07     0.21     9.45     0  02:16        0.21
  HS02004479           JUNCTION     0.10     0.25     9.45     0  02:16        0.25
  HS02004478           JUNCTION     0.05     0.13     9.36     0  02:17        0.13
  YS02001745           JUNCTION     0.14     0.32     7.84     0  05:27        0.31
  YS02001748           JUNCTION     0.50     0.72     7.80     0  05:31        0.70
  YS02001751           JUNCTION     0.68     0.95     7.83     0  05:26        0.93
  YS02001754           JUNCTION     0.93     1.22     7.83     0  05:19        1.19
  YS02001762           JUNCTION     1.13     1.53     7.93     0  05:14        1.42
  YS02001765           JUNCTION     1.08     1.53     7.98     0  04:30        1.39
  YS02001767           JUNCTION     1.05     1.55     8.04     0  04:30        1.38
  YS02001770           JUNCTION     1.04     1.63     8.12     0  04:30        1.42
  YS02001774           JUNCTION     1.11     1.73     8.15     0  04:30        1.50
  YS02001779           JUNCTION     0.86     1.48     8.17     0  04:30        1.26
  YS02001882           JUNCTION     0.30     0.48     7.20     0  02:50        0.48
  YS02001884           JUNCTION     0.39     0.58     7.20     0  02:51        0.58
  YS02001759           JUNCTION     1.16     1.52     7.88     0  05:14        1.43
  YS02001887           JUNCTION     0.47     0.66     7.20     0  02:51        0.66
  YS02001890           JUNCTION     0.50     0.69     7.19     0  02:50        0.69
  YS02001898           JUNCTION     0.27     0.44     7.18     0  02:50        0.44
  YS02001901           JUNCTION     0.39     0.57     7.18     0  02:49        0.57
  YS02001904           JUNCTION     0.37     0.54     7.17     0  02:49        0.54
  YS02001907           JUNCTION     0.70     0.89     7.18     0  02:49        0.89
  YS02001910           JUNCTION     0.48     0.67     7.18     0  02:49        0.67
  YS02001915           JUNCTION     0.29     0.46     7.17     0  02:49        0.46
  YS02001918           JUNCTION     0.08     0.11     7.17     0  02:50        0.11
  YS02001619           JUNCTION     0.64     0.85     7.78     0  05:21        0.85
  YS02001629           JUNCTION     0.99     1.25     7.80     0  05:15        1.24
  YS02001641           JUNCTION     1.10     1.41     7.85     0  05:14        1.38
  YS02001644           JUNCTION     1.10     1.42     7.85     0  05:14        1.38
  YS02001652           JUNCTION     0.95     1.21     7.81     0  05:14        1.20
  YS02001655           JUNCTION     0.71     0.97     7.82     0  05:09        0.96
  YS02001920           JUNCTION     0.18     0.21     7.22     0  03:02        0.21
  YS02001923           JUNCTION     0.07     0.09     7.35     0  03:02        0.09
  YS02001926           JUNCTION     0.15     0.18     7.63     0  03:01        0.18
  YS02001929           JUNCTION     0.07     0.09     7.78     0  03:01        0.09
  YS02001658           JUNCTION     0.44     0.65     7.79     0  05:17        0.65
  YS02001661           JUNCTION     0.24     0.39     7.80     0  05:23        0.39
  YS02001664           JUNCTION     0.07     0.12     8.05     0  02:43        0.12
  YS02001622           JUNCTION     0.66     0.87     7.77     0  05:21        0.86
  YS02001633           JUNCTION     1.08     1.37     7.82     0  05:14        1.35
  YS02001649           JUNCTION     1.14     1.44     7.83     0  05:14        1.41
  YS02001757           JUNCTION     1.26     1.57     7.83     0  05:19        1.52
  YS02001895           JUNCTION     0.26     0.44     7.19     0  02:50        0.44
  YS02001625           JUNCTION     0.94     1.17     7.77     0  05:07        1.16
  YS02163301           JUNCTION     1.02     1.29     7.81     0  04:59        1.28
  YS02163601           JUNCTION     1.14     1.45     7.84     0  05:14        1.41
  YS02164001           JUNCTION     1.08     1.39     7.85     0  05:14        1.35
  YS02001647           JUNCTION     0.93     1.24     7.85     0  05:14        1.19
  YSB1154              JUNCTION     0.24     0.40     9.45     0  02:16        0.40
  YSB6556              JUNCTION     0.14     0.29     9.45     0  02:16        0.29
  YSB1174              JUNCTION     0.19     0.35     9.45     0  02:16        0.35
  YSB1171              JUNCTION     0.39     0.55     9.45     0  02:16        0.55
  YS02006553           JUNCTION     0.70     0.89     7.17     0  02:53        0.89
  YS02006561           JUNCTION     0.15     0.24     6.90     0  02:52        0.24
  YS02006556           JUNCTION     0.67     0.86     7.17     0  02:53        0.86
  YS02006558           JUNCTION     0.72     0.90     7.17     0  02:53        0.90
  YS02001783           JUNCTION     0.25     0.43     6.57     0  02:52        0.43
  YS02001784           JUNCTION     0.29     0.45     6.52     0  02:53        0.45
  YS02001786           JUNCTION     0.24     0.38     6.41     0  02:53        0.38
  YS02001788           JUNCTION     0.18     0.29     6.27     0  02:51        0.29
  YS02001790           JUNCTION     0.22     0.35     6.00     0  02:52        0.35
  YS02001791           JUNCTION     0.14     0.22     5.69     0  02:52        0.22
  YS02001793           JUNCTION     0.09     0.15     4.98     0  02:52        0.15
  WS02004139           JUNCTION     0.67     0.74     5.65     0  02:44        0.74
  WSC                  OUTFALL      0.32     0.39     1.06     0  02:43        0.39
  3                    OUTFALL      0.11     0.20     6.20     0  02:36        0.20
  4                    OUTFALL      0.00     0.00     7.00     0  00:00        0.00
  5                    OUTFALL      0.00     0.00     5.00     0  00:00        0.00
  JK-storage           STORAGE      0.03     3.00     3.80     0  00:00        2.70
  CC-storage           STORAGE      0.50     0.74     7.74     0  05:32        0.74
  XR-storage           STORAGE      1.36     5.58     3.58     0  01:50        5.58
  
  
  *******************
  Node Inflow Summary
  *******************
  
  -------------------------------------------------------------------------------------------------
                                  Maximum  Maximum                  Lateral       Total        Flow
                                  Lateral    Total  Time of Max      Inflow      Inflow     Balance
                                   Inflow   Inflow   Occurrence      Volume      Volume       Error
  Node                 Type           LPS      LPS  days hr:min    10^6 ltr    10^6 ltr     Percent
  -------------------------------------------------------------------------------------------------
  WS02001211           JUNCTION      7.35   387.94     0  03:03       0.207        8.52       0.438
  WS02001212           JUNCTION      0.00   388.25     0  03:03           0        8.49       0.246
  WS02001213           JUNCTION      0.00   388.54     0  03:02           0        8.47       0.272
  WS02003069           JUNCTION      0.32   915.91     0  02:41     0.00902          16       0.196
  WS02003072           JUNCTION      0.00   915.89     0  02:42           0        15.9       0.237
  WS02003073           JUNCTION      1.82   917.72     0  02:42      0.0514          16       0.269
  WS02003060           JUNCTION     16.53   915.62     0  02:41       0.466          16       0.185
  WS02003066           JUNCTION      0.00   513.96     0  02:39           0        7.14       0.063
  WS02003059           JUNCTION      0.00   389.01     0  03:02           0        8.45       0.466
  WS02003067           JUNCTION      0.00   513.92     0  02:39           0        7.15       0.133
  WS02004401           JUNCTION      0.00   516.77     0  02:34           0        7.39       0.297
  WS02004402           JUNCTION      0.00   516.41     0  02:34           0        7.37       0.279
  WS02004403           JUNCTION      0.00   516.10     0  02:35           0        7.34       0.254
  WS02004404           JUNCTION      0.16   516.02     0  02:34     0.00457        7.33       0.191
  WS02004406           JUNCTION      0.00   516.19     0  02:35           0         7.3       0.465
  WS02004409           JUNCTION      0.00   515.73     0  02:36           0        7.26       0.232
  WS02004410           JUNCTION      0.00   514.87     0  02:37           0        7.24       0.261
  WS02004411           JUNCTION      0.00   514.47     0  02:38           0        7.22       0.268
  WS02004412           JUNCTION      0.00   514.20     0  02:38           0         7.2       0.288
  WS02004413           JUNCTION      0.00   514.05     0  02:38           0        7.18       0.425
  WS02004405           JUNCTION      0.04   515.90     0  02:34     0.00107        7.32       0.285
  WS02006109           JUNCTION      1.23   512.65     0  02:31      0.0347        7.49       0.296
  WS02006110           JUNCTION      0.00   512.65     0  02:31           0        7.46       0.270
  WS02006111           JUNCTION      0.00   531.75     0  02:32           0        7.43       0.059
  WS02006112           JUNCTION     10.58   522.60     0  02:32      0.0279        7.46       0.397
  WS02006113           JUNCTION      0.00   512.83     0  02:32           0        7.44       0.138
  WS02006115           JUNCTION      0.00   520.66     0  02:33           0        7.43       0.279
  WS02006116           JUNCTION      0.00   517.66     0  02:34           0        7.41       0.264
  WS02006230           JUNCTION     10.28   349.13     0  02:49        0.29        6.55       0.228
  WS02006231           JUNCTION      0.00   338.06     0  02:49           0        6.27       0.150
  WS02006232           JUNCTION      0.00   337.95     0  02:49           0        6.28       0.261
  WS02006234           JUNCTION      0.00   337.42     0  02:49           0        6.29       0.129
  WS02006235           JUNCTION      0.00   337.10     0  02:49           0        6.33       0.176
  WS02006238           JUNCTION      0.00   234.67     0  02:43           0         4.1       0.194
  WS02006240           JUNCTION      0.00   233.43     0  02:43           0        4.09       0.297
  WS02006242           JUNCTION      0.00   232.76     0  02:41           0         4.1       0.358
  WS02006243           JUNCTION      0.00   231.90     0  02:41           0         4.1       0.184
  WS02006245           JUNCTION      0.00   235.21     0  02:25           0         4.1       0.203
  WS02006247           JUNCTION      0.00   237.49     0  02:26           0        4.11       0.168
  WS02006248           JUNCTION      0.00   238.88     0  02:26           0        4.11       0.112
  WS02006249           JUNCTION      0.00   240.51     0  02:24           0        4.12       0.236
  WS02006239           JUNCTION      0.00   234.13     0  02:43           0         4.1       0.291
  WS02006251           JUNCTION      0.08   242.71     0  02:21     0.00217        4.13       0.214
  WS02006252           JUNCTION      0.00   200.00     0  04:40           0        3.98       0.011
  WS02006253           JUNCTION      1.63    46.45     0  02:16     0.00361       0.158       2.379
  WS02006256           JUNCTION      0.00   600.00     0  02:27           0        6.76       0.048
  WS02004138           JUNCTION      0.00   380.00     0  02:00           0        8.35       0.055
  WS02004407           JUNCTION      0.00   515.80     0  02:36           0        7.26       0.105
  WS02006228           JUNCTION      0.00   511.42     0  02:31           0        7.47       0.207
  WS02006229           JUNCTION      0.00   511.43     0  02:30           0        7.48       0.173
  WS02006280           JUNCTION      0.00   236.26     0  02:17           0       0.948       0.007
  WS02006284           JUNCTION      0.10   236.24     0  02:17      0.0027       0.949       0.111
  WS02006287           JUNCTION      0.00   236.12     0  02:17           0       0.947       0.077
  WSF200               JUNCTION      0.00   513.97     0  02:39           0        7.14       0.060
  HS02004901           JUNCTION     13.11    13.11     0  02:09      0.0336      0.0337       5.500
  HS02004881           JUNCTION      5.28    45.21     0  02:16      0.0146       0.155       0.226
  HS02004876           JUNCTION      8.33    40.29     0  02:17      0.0281        0.14       0.378
  HS02004870           JUNCTION      9.28    32.14     0  02:16      0.0277       0.112       0.095
  HS02004862           JUNCTION      7.53    23.50     0  02:17      0.0333      0.0849       0.200
  HS02004856           JUNCTION      6.88    16.03     0  02:16      0.0208       0.053       2.787
  HS02004852           JUNCTION      0.00     9.61     0  02:16           0      0.0322       0.159
  HS02004848           JUNCTION     14.99    14.99     0  02:19      0.0661      0.0661       0.066
  HS02004842           JUNCTION      0.00     5.94     0  02:29           0      0.0469      38.317
  HS02004837           JUNCTION     21.17    26.12     0  02:16       0.227       0.261       0.312
  HS02004830           JUNCTION      0.15    26.25     0  02:16     0.00423       0.252       0.493
  HS02004824           JUNCTION     16.79    42.82     0  02:20      0.0866       0.337       0.160
  HS02004817           JUNCTION      0.60    43.41     0  02:20      0.0169       0.353       4.950
  HS02004807           JUNCTION     17.48    59.27     0  02:18       0.051       0.388       1.102
  HS02004802           JUNCTION      0.00    59.63     0  02:20           0       0.383       1.073
  HS02004799           JUNCTION     13.43   150.92     0  02:15      0.0412       0.496       0.457
  HS02004792           JUNCTION     60.18   137.81     0  02:14        0.18       0.455       0.090
  HS02004788           JUNCTION     19.86    80.20     0  02:15       0.104       0.277       0.142
  HS02004785           JUNCTION      0.15    60.78     0  02:14     0.00423       0.174       0.279
  HS02004777           JUNCTION      0.03    61.24     0  02:13    0.000846       0.175       3.056
  HS02004770           JUNCTION     51.08    62.62     0  02:11       0.143       0.175       1.796
  HS02004480           JUNCTION      0.00   177.83     0  02:16           0        0.58       0.128
  HS02004479           JUNCTION      0.00    27.60     0  02:17           0       0.096       0.766
  HS02004478           JUNCTION      0.00   236.11     0  02:17           0       0.948       0.065
  YS02001745           JUNCTION     83.91   132.58     0  05:18       0.897        1.01       0.142
  YS02001748           JUNCTION      0.04   180.57     0  05:04     0.00127        1.12       0.822
  YS02001751           JUNCTION      0.01   194.99     0  05:03     0.00031        1.02       1.745
  YS02001754           JUNCTION      0.26   114.39     0  02:42     0.00733       0.906       2.207
  YS02001762           JUNCTION      0.00   129.81     0  02:36           0       0.996       2.129
  YS02001765           JUNCTION      0.00   146.66     0  02:36           0       0.998       2.465
  YS02001767           JUNCTION      0.54   125.54     0  02:48      0.0151        1.02       3.555
  YS02001770           JUNCTION    107.79   127.34     0  02:49        1.04        1.13       2.623
  YS02001774           JUNCTION      0.00    50.15     0  02:15           0       0.186      15.480
  YS02001779           JUNCTION      0.01    40.98     0  07:06    0.000141      0.0854      13.275
  YS02001882           JUNCTION      0.00     4.69     0  02:07           0     0.00577      42.258
  YS02001884           JUNCTION      0.00    13.58     0  02:07           0      0.0227      27.975
  YS02001759           JUNCTION    105.41   222.20     0  02:50       0.974        1.93       1.188
  YS02001887           JUNCTION    138.93   138.93     0  02:41        1.16        1.17       0.623
  YS02001890           JUNCTION      0.00   138.52     0  02:39           0        1.15       0.697
  YS02001898           JUNCTION      0.00   138.03     0  02:45           0        1.13       0.199
  YS02001901           JUNCTION      0.00   138.05     0  02:44           0        1.13       0.497
  YS02001904           JUNCTION      0.00   137.64     0  02:51           0        1.13       0.462
  YS02001907           JUNCTION      0.00   250.43     0  02:52           0        2.43       0.921
  YS02001910           JUNCTION      0.00   114.57     0  03:00           0        1.31       0.791
  YS02001915           JUNCTION     75.11   113.63     0  03:00       0.766        1.31       0.356
  YS02001918           JUNCTION      0.00    38.38     0  03:02           0       0.547       0.215
  YS02001619           JUNCTION     73.04    73.04     0  02:57       0.756       0.759       1.108
  YS02001629           JUNCTION      0.00   128.58     0  04:55           0       0.748       3.042
  YS02001641           JUNCTION      0.00   164.05     0  03:02           0        1.48       1.418
  YS02001644           JUNCTION     79.74   247.50     0  03:02       0.861        2.31       1.132
  YS02001652           JUNCTION      0.00   134.04     0  03:01           0       0.856       2.507
  YS02001655           JUNCTION      0.15   190.73     0  04:45     0.00434       0.941       2.073
  YS02001920           JUNCTION      2.87    38.38     0  03:02      0.0809       0.549       0.384
  YS02001923           JUNCTION      0.04    35.51     0  03:01     0.00106       0.469       0.068
  YS02001926           JUNCTION      0.05    35.54     0  03:01     0.00147        0.47       0.480
  YS02001929           JUNCTION     35.50    35.50     0  03:01       0.469       0.469       0.066
  YS02001658           JUNCTION      0.00   177.53     0  04:55           0         1.1       0.910
  YS02001661           JUNCTION      0.00   168.05     0  05:01           0        1.02       0.203
  YS02001664           JUNCTION     98.45    98.45     0  02:43        0.85        0.85       0.014
  YS02001622           JUNCTION      0.00    88.97     0  02:58           0       0.812       2.954
  YS02001633           JUNCTION     81.08   172.10     0  03:02       0.886        1.54       2.094
  YS02001649           JUNCTION      0.00   345.24     0  03:01           0        3.07       1.213
  YS02001757           JUNCTION      0.00   614.62     0  03:00           0        5.75       1.623
  YS02001895           JUNCTION      0.00   137.93     0  02:43           0        1.14       0.340
  YS02001625           JUNCTION      0.00   130.20     0  04:55           0       0.844       4.640
  YS02163301           JUNCTION      0.00    96.95     0  02:49           0       0.679       3.544
  YS02163601           JUNCTION      0.11   172.84     0  03:02      0.0031         1.5       2.035
  YS02164001           JUNCTION      0.00   167.15     0  03:02           0        1.48       1.326
  YS02001647           JUNCTION      0.00   252.18     0  03:02           0        2.27       1.102
  YSB1154              JUNCTION     14.82    14.82     0  02:14        0.05      0.0514       2.889
  YSB6556              JUNCTION      0.00    14.72     0  02:17           0      0.0524       2.435
  YSB1174              JUNCTION     14.98    14.98     0  02:09      0.0364      0.0374       3.553
  YSB1171              JUNCTION      0.00    27.51     0  02:15           0      0.0954       7.097
  YS02006553           JUNCTION      0.00   250.19     0  02:52           0        2.42       0.597
  YS02006561           JUNCTION      0.00   375.96     0  02:50           0        3.42       0.017
  YS02006556           JUNCTION      0.00   250.33     0  02:52           0        2.42       0.431
  YS02006558           JUNCTION    117.45   366.72     0  02:52        1.06        3.45       0.135
  YS02001783           JUNCTION      0.00   366.64     0  02:52           0        3.42       0.046
  YS02001784           JUNCTION      1.06   367.60     0  02:52      0.0299        3.45       0.076
  YS02001786           JUNCTION      0.06   367.53     0  02:53     0.00159        3.45       0.074
  YS02001788           JUNCTION      0.07   367.52     0  02:53       0.002        3.45       0.043
  YS02001790           JUNCTION      0.15   367.70     0  02:52     0.00437        3.45       0.053
  YS02001791           JUNCTION      0.00   367.64     0  02:52           0        3.45       0.026
  YS02001793           JUNCTION      0.00   367.65     0  02:52           0        3.45       0.012
  WS02004139           JUNCTION      0.32   380.32     0  02:00     0.00905        8.35       0.455
  WSC                  OUTFALL       0.00   917.75     0  02:43           0        15.9       0.000
  3                    OUTFALL       0.00   501.80     0  02:36           0        4.49       0.000
  4                    OUTFALL       0.00     0.00     0  00:00           0           0       0.000 ltr
  5                    OUTFALL       0.00     0.00     0  00:00           0           0       0.000 ltr
  JK-storage           STORAGE       0.00   367.66     0  02:52           0         3.6     -46.758
  CC-storage           STORAGE       0.00   614.77     0  03:00           0        5.64       0.637
  XR-storage           STORAGE     335.95   335.95     0  02:53        7.15        7.75      -7.239
  
  
  **********************
  Node Surcharge Summary
  **********************
  
  Surcharging occurs when water rises above the top of the highest conduit.
  ---------------------------------------------------------------------
                                               Max. Height   Min. Depth
                                   Hours       Above Crown    Below Rim
  Node                 Type      Surcharged         Meters       Meters
  ---------------------------------------------------------------------
  WS02006109           JUNCTION        0.98          0.124        1.696
  WS02006112           JUNCTION        0.32          0.028        1.652
  WS02006232           JUNCTION        0.73          0.068        1.412
  WS02006235           JUNCTION        0.26          0.019        1.271
  WS02006238           JUNCTION        0.37          0.035        1.395
  WS02006228           JUNCTION        0.95          0.146        2.054
  YS02001754           JUNCTION        2.82          0.174        0.976
  YS02001762           JUNCTION        5.22          0.531        0.619
  YS02001765           JUNCTION        5.14          0.530        0.570
  YS02001767           JUNCTION        5.02          0.553        0.477
  YS02001770           JUNCTION        4.62          0.598        0.322
  YS02001774           JUNCTION        5.19          0.727        0.323
  YS02001779           JUNCTION        2.14          0.480        0.200
  YS02001759           JUNCTION        5.27          0.518        0.692
  YS02001641           JUNCTION        5.18          0.413        0.687
  YS02001644           JUNCTION        5.19          0.419        0.501
  YS02001652           JUNCTION        3.52          0.185        0.945
  YS02001633           JUNCTION        5.12          0.348        0.712
  YS02001649           JUNCTION        5.24          0.437        0.613
  YS02001757           JUNCTION        5.38          0.569        0.641
  YS02001625           JUNCTION        3.88          0.169        0.611
  YS02163301           JUNCTION        4.94          0.294        0.736
  YS02163601           JUNCTION        5.24          0.447        0.633
  YS02164001           JUNCTION        5.15          0.389        0.711
  YS02001647           JUNCTION        3.76          0.237        0.663
  
  
  *********************
  Node Flooding Summary
  *********************
  
  No nodes were flooded.
  
  
  **********************
  Storage Volume Summary
  **********************
  
  --------------------------------------------------------------------------------------------------
                         Average     Avg  Evap Exfil       Maximum     Max    Time of Max    Maximum
                          Volume    Pcnt  Pcnt  Pcnt        Volume    Pcnt     Occurrence    Outflow
  Storage Unit           1000 m3    Full  Loss  Loss       1000 m3    Full    days hr:min        LPS
  --------------------------------------------------------------------------------------------------
  JK-storage               0.002       1     0     0         0.151      52       0  00:00     600.00
  CC-storage               1.404       9     0     0         2.054      13       0  05:32     200.00
  XR-storage               0.163      18     0     0         0.669      72       0  01:50     380.00
  
  
  ***********************
  Outfall Loading Summary
  ***********************
  
  -----------------------------------------------------------
                         Flow       Avg       Max       Total
                         Freq      Flow      Flow      Volume
  Outfall Node           Pcnt       LPS       LPS    10^6 ltr
  -----------------------------------------------------------
  WSC                   99.99    673.25    917.75      15.920
  3                     95.11    232.08    501.80       4.493
  4                      0.00      0.00      0.00       0.000
  5                      0.00      0.00      0.00       0.000
  -----------------------------------------------------------
  System                48.78    905.33   1417.47      20.412
  
  
  ********************
  Link Flow Summary
  ********************
  
  -----------------------------------------------------------------------------
                                 Maximum  Time of Max   Maximum    Max/    Max/
                                  |Flow|   Occurrence   |Veloc|    Full    Full
  Link                 Type          LPS  days hr:min     m/sec    Flow   Depth
  -----------------------------------------------------------------------------
  WS02003066WSF200     CONDUIT    513.97     0  02:39      2.75    0.09    0.22
  WS02006287WS02006284 CONDUIT    236.14     0  02:17      1.70    0.11    0.23
  WS02006284WS02006280 CONDUIT    236.26     0  02:17      1.94    0.10    0.21
  WS02006280WS02006229 CONDUIT    236.26     0  02:17      3.12    0.05    0.15
  WS02006229WS02006228 CONDUIT    511.42     0  02:31      1.02    1.69    1.00
  WS02006256WS02006235 CONDUIT    166.25     0  00:01      2.58    1.76    1.00
  WS02006253WS02006251 CONDUIT     46.61     0  02:17      0.51    0.14    0.67
  WS02006252WS02006251 CONDUIT    200.51     0  02:20      1.97    0.74    0.76
  WS02006251WS02006249 CONDUIT    240.51     0  02:24      0.98    0.69    0.68
  WS02006249WS02006248 CONDUIT    238.88     0  02:26      1.07    1.31    0.67
  WS02006248WS02006247 CONDUIT    237.49     0  02:26      1.03    0.52    0.71
  WS02006247WS02006245 CONDUIT    235.21     0  02:25      0.98    1.87    0.76
  WS02006245WS02006243 CONDUIT    231.90     0  02:41      1.02    0.69    0.78
  WS02006243WS02006242 CONDUIT    232.76     0  02:41      0.82    0.50    0.89
  WS02006242WS02006240 CONDUIT    233.43     0  02:43      0.69    0.93    0.96
  WS02006240WS02006239 CONDUIT    234.13     0  02:43      0.68    0.74    0.95
  WS02006239WS02006238 CONDUIT    234.67     0  02:43      0.67    0.75    1.00
  WS02006238WS02006235 CONDUIT    234.76     0  02:43      1.25    0.52    1.00
  WS02006235WS02006234 CONDUIT    337.42     0  02:49      0.94    3.56    0.99
  WS02006234WS02006232 CONDUIT    337.95     0  02:49      1.13    0.68    1.00
  WS02006232WS02006231 CONDUIT    338.06     0  02:49      0.94    0.71    0.95
  WS02006231WS02006230 CONDUIT    338.85     0  02:49      1.29    5.14    0.88
  WS02006230WS02006229 CONDUIT    350.17     0  02:49      0.91    7.79    1.00
  WS02006228WS02006109 CONDUIT    511.42     0  02:31      1.02    2.23    1.00
  WS02006116WS02004401 CONDUIT    516.77     0  02:34      0.75    0.71    0.82
  WS02006115WS02006116 CONDUIT    517.66     0  02:34      0.84    0.66    0.74
  WS02006113WS02006111 CONDUIT    531.75     0  02:32      2.42    0.64    0.45
  WS02006112WS02006115 CONDUIT    520.66     0  02:33      0.73    0.31    0.86
  WS02006111WS02006112 CONDUIT    517.02     0  02:32      1.45    0.25    0.67
  WS02006110WS02006113 CONDUIT    512.83     0  02:32      1.22    0.47    0.78
  WS02006109WS02006110 CONDUIT    512.65     0  02:31      1.02    0.99    1.00
  WS02004411WS02004412 CONDUIT    514.20     0  02:38      0.90    0.73    0.68
  WS02004401WS02004402 CONDUIT    516.41     0  02:34      0.77    0.62    0.85
  WS02004413WS02003067 CONDUIT    513.92     0  02:39      1.08    0.22    0.58
  WS02004412WS02004413 CONDUIT    514.05     0  02:38      0.80    0.34    0.77
  WS02004410WS02004411 CONDUIT    514.47     0  02:38      0.92    0.70    0.67
  WS02004409WS02004410 CONDUIT    514.87     0  02:37      0.95    0.67    0.66
  WS02004407WS02004409 CONDUIT    515.73     0  02:36      1.44    0.18    0.47
  WS02004406WS02004407 CONDUIT    515.80     0  02:36      1.01    0.23    0.62
  WS02004405WS02004406 CONDUIT    516.19     0  02:35      0.67    1.02    0.94
  WS02004404WS02004405 CONDUIT    515.86     0  02:34      0.84    5.05    0.95
  WS02004403WS02004404 CONDUIT    515.85     0  02:34      0.74    0.37    0.91
  WS02004402WS02004403 CONDUIT    516.10     0  02:35      0.75    0.74    0.87
  WS02004139WS02001211 CONDUIT    380.59     0  03:03      0.69    0.48    0.59
  WS02004138WS02004139 CONDUIT    380.00     0  02:00      2.94    0.08    0.44
  WS02003067WS02003066 CONDUIT    513.96     0  02:39      1.18    0.16    0.41
  WS02001213WS02003059 CONDUIT    389.01     0  03:02      0.68    0.64    0.77
  WS02001212WS02001213 CONDUIT    388.54     0  03:02      1.32    0.60    0.47
  WS02001211WS02001212 CONDUIT    388.25     0  03:03      0.78    0.30    0.65
  WS02003072WS02003073 CONDUIT    915.90     0  02:42      1.71    1.98    0.48
  WS02003069WS02003072 CONDUIT    915.89     0  02:42      1.61    0.44    0.50
  WS02003060WS02003069 CONDUIT    915.59     0  02:41      1.85    0.36    0.45
  WS02003059WS02003060 CONDUIT    389.66     0  03:19      0.93    0.25    0.66
  HS02004901HS02004770 CONDUIT     12.01     0  02:14      0.05    0.05    0.34
  HS02004876HS02004881 CONDUIT     40.39     0  02:17      0.62    0.43    0.09
  HS02004870HS02004876 CONDUIT     32.11     0  02:17      0.43    0.02    0.11
  HS02004842HS02004848 CONDUIT      5.94     0  02:29      0.03    0.00    0.28
  HS02004837HS02004842 CONDUIT      6.16     0  02:30      0.41    0.00    0.29
  HS02004830HS02004837 CONDUIT     26.10     0  02:16      0.46    0.03    0.08
  HS02004824HS02004830 CONDUIT     26.24     0  02:17      0.50    0.03    0.07
  HS02004817HS02004824 CONDUIT     42.81     0  02:20      0.17    0.02    0.41
  HS02004770HS02004777 CONDUIT     61.21     0  02:13      0.25    0.11    0.35
  HS02004799HS02004480 CONDUIT    150.66     0  02:15      0.64    0.19    0.34
  HS02004792HS02004799 CONDUIT    137.73     0  02:15      0.73    0.08    0.27
  HS02004788HS02004792 CONDUIT     80.12     0  02:16      0.88    0.05    0.13
  HS02004785HS02004788 CONDUIT     60.68     0  02:15      0.55    0.46    0.16
  HS02004777HS02004785 CONDUIT     60.63     0  02:14      0.30    0.07    0.29
  HS02004480HS02004478 CONDUIT    177.80     0  02:16      1.02    0.75    0.25
  HS02004479HS02004480 CONDUIT     27.83     0  02:18      0.16    0.03    0.33
  HS02004862HS02004870 CONDUIT     23.46     0  02:18      0.50    0.03    0.07
  HS02004848HS02004852 CONDUIT      9.61     0  02:16      0.33    0.01    0.04
  HS02004856HS02004862 CONDUIT     16.00     0  02:17      0.37    0.02    0.06
  HS02004852HS02004856 CONDUIT      9.57     0  02:18      0.14    0.01    0.10
  HS02004802HS02004478 CONDUIT     60.12     0  02:20      0.32    0.05    0.27
  HS02004478WS02006287 CONDUIT    236.12     0  02:17      1.39    0.07    0.19
  HS02004817HS02004807 CONDUIT     44.09     0  02:21      0.12    0.03    0.53
  HS02004807HS02004802 CONDUIT     59.63     0  02:20      0.27    0.11    0.32
  YS02001759YS02001757 CONDUIT    223.66     0  02:50      0.28    0.16    1.00
  YS02001762YS02001759 CONDUIT    116.89     0  02:50      0.17    0.13    1.00
  YS02001765YS02001762 CONDUIT    129.81     0  02:36      0.23    0.12    1.00
  YS02001770YS02001767 CONDUIT    125.01     0  02:48      0.37    0.50    1.00
  YS02001774YS02001770 CONDUIT     50.15     0  02:15      0.13    0.03    1.00
  YS02001779YS02001774 CONDUIT     40.98     0  07:06      0.08    0.02    1.00
  YS02001649YS02001757 CONDUIT    346.43     0  03:01      0.44    0.21    1.00
  YS02001767YS02001765 CONDUIT    146.66     0  02:36      0.26    0.18    1.00
  YS02006561YS02001783 CONDUIT    366.64     0  02:52      1.86    0.19    0.41
  YS02001783YS02001784 CONDUIT    366.54     0  02:52      1.30    0.51    0.55
  YS02001784YS02001785 CONDUIT    367.48     0  02:53      1.39    0.86    0.52
  YS02001788YS02001790 CONDUIT    367.55     0  02:52      1.95    0.27    0.40
  YS02001790YS02001791 CONDUIT    367.64     0  02:52      2.26    0.40    0.36
  YS02001791YS02001793 CONDUIT    367.65     0  02:52      4.15    0.16    0.23
  YS02001910YS02001907 CONDUIT    114.76     0  03:01      0.49    0.06    0.77
  YS02001786YS02001788 CONDUIT    367.45     0  02:53      1.83    0.71    0.42
  YS02001915YS02001910 CONDUIT    114.57     0  03:00      0.44    0.06    0.56
  YS02001918YS02001915 CONDUIT     39.22     0  03:03      0.44    0.02    0.28
  YS02001923YS02001920 CONDUIT     35.51     0  03:02      0.48    0.02    0.15
  YS02001926YS02001923 CONDUIT     35.47     0  03:01      0.52    0.05    0.14
  YS02001929YS02001926 CONDUIT     35.49     0  03:01      0.55    0.02    0.14
  YS02001920YS02001918 CONDUIT     38.38     0  03:02      0.49    0.04    0.16
  YS02001629YS02163301 CONDUIT     96.95     0  02:49      0.12    0.12    1.00
  YS02001619YS02001622 CONDUIT     88.97     0  02:58      0.69    0.13    0.86
  YS02001622YS02001625 CONDUIT    130.20     0  04:55      0.27    0.07    0.93
  YS02001625YS02001629 CONDUIT    128.58     0  04:55      0.27    0.06    0.94
  YS02163301YS02001633 CONDUIT     91.78     0  03:02      0.12    0.09    1.00
  YS02163601YS02164001 CONDUIT    167.15     0  03:02      0.21    0.15    1.00
  YS02164001YS02001641 CONDUIT    164.05     0  03:02      0.21    0.22    1.00
  YS02001641YS02001644 CONDUIT    168.43     0  03:02      0.21    0.54    1.00
  YS02001647YS02001649 CONDUIT    273.10     0  03:01      0.35    0.14    1.00
  YS02006553YS02006556 CONDUIT    250.33     0  02:52      0.35    0.21    0.85
  YS02006556YS02006558 CONDUIT    250.21     0  02:52      0.34    0.20    0.88
  YSB6556YSB1171       CONDUIT     15.04     0  02:18      0.06    0.02    0.60
  YS02001907YS02006553 CONDUIT    250.19     0  02:52      0.29    0.29    0.97
  YS02006558YS02006561 CONDUIT    375.96     0  02:50      2.47    0.83    0.53
  YS02001633YS02163601 CONDUIT    172.73     0  03:02      0.22    0.18    1.00
  YS02001644YS02001647 CONDUIT    252.18     0  03:02      0.33    0.15    1.00
  YS02001745YS02001748 CONDUIT    180.53     0  05:04      1.45    0.07    0.45
  YS02001748YS02001751 CONDUIT    192.77     0  05:03      1.13    0.10    0.80
  YS02001751YS02001754 CONDUIT    114.13     0  02:42      1.01    0.06    0.98
  YS02001754YS02001757 CONDUIT    109.07     0  03:01      0.33    0.04    1.00
  YS02001882YS02001884 CONDUIT      4.69     0  02:07      0.06    0.01    0.50
  YS02001884YS02001887 CONDUIT     13.58     0  02:07      0.07    0.02    0.59
  YS02001890YS02001895 CONDUIT    137.93     0  02:43      0.31    0.06    0.56
  YS02001895YS02001898 CONDUIT    138.03     0  02:45      0.51    0.24    0.43
  YS02001898YS02001901 CONDUIT    138.05     0  02:44      0.35    0.09    0.51
  YS02001901YS02001904 CONDUIT    137.64     0  02:51      0.31    0.21    0.56
  YS02001904YS02001907 CONDUIT    137.96     0  02:52      0.23    0.05    0.72
  YS02001887YS02001890 CONDUIT    138.52     0  02:39      0.26    0.24    0.65
  YS02001652YS02001649 CONDUIT    135.26     0  02:55      0.37    0.07    1.00
  YS02001655YS02001652 CONDUIT    134.04     0  03:01      1.08    0.07    0.99
  YS02001658YS02001655 CONDUIT    167.36     0  04:44      1.30    0.07    0.79
  YS02001661YS02001658 CONDUIT    177.53     0  04:55      1.50    0.07    0.45
  YS02001664YS02001661 CONDUIT     98.44     0  02:43      1.19    0.03    0.23
  YSB1154YSB6556       CONDUIT     14.72     0  02:17      0.19    0.03    0.49
  YSB1174YSB1171       CONDUIT     13.72     0  02:11      0.06    0.02    0.60
  YSB1171HS02004479    CONDUIT     27.60     0  02:17      0.54    0.02    0.47
  HS02004881HS02006253 CONDUIT     45.21     0  02:16      1.76    0.01    0.12
  YS02001793JiankangQianchi CONDUIT    367.66     0  02:52     13.84    0.03    0.50
  YS02001757CaochengTiaoxuchi CONDUIT    614.77     0  03:00      1.31    0.27    0.87
  WSF200WS02003060     CONDUIT    514.06     0  02:39      1.56    0.11    0.33
  1                    CONDUIT    917.75     0  02:43      3.25    0.32    0.39
  2                    CONDUIT      0.00     0  00:00      0.00    0.00    0.00
  3                    CONDUIT    501.80     0  02:36      9.79    0.80    0.68
  4                    CONDUIT      0.00     0  00:00      0.00    0.00    0.00
  CC-Pump-1            PUMP       200.00     0  04:50              1.00
  CC-Pump-2            PUMP       200.00     0  02:20              1.00
  JK-Pump-1            PUMP       300.00     0  00:00              1.00
  JK-Pump-2            PUMP       300.00     0  02:27              1.00
  XR-Pump-1            PUMP        95.00     0  00:00              1.00
  XR-Pump-2            PUMP        95.00     0  02:00              1.00
  XR-Pump-3            PUMP        95.00     0  00:00              1.00
  XR-Pump-4            PUMP        95.00     0  02:00              1.00
  
  
  ***************************
  Flow Classification Summary
  ***************************
  
  -------------------------------------------------------------------------------------
                      Adjusted    ---------- Fraction of Time in Flow Class ---------- 
                       /Actual         Up    Down  Sub   Sup   Up    Down  Norm  Inlet 
  Conduit               Length    Dry  Dry   Dry   Crit  Crit  Crit  Crit  Ltd   Ctrl  
  -------------------------------------------------------------------------------------
  WS02003066WSF200        1.00   0.06  0.00  0.00  0.00  0.94  0.00  0.00  0.71  0.00
  WS02006287WS02006284    1.00   0.04  0.01  0.00  0.66  0.28  0.00  0.00  0.77  0.00
  WS02006284WS02006280    1.00   0.04  0.00  0.00  0.00  0.00  0.00  0.96  0.00  0.00
  WS02006280WS02006229    1.00   0.04  0.00  0.00  0.00  0.00  0.00  0.96  0.00  0.00
  WS02006229WS02006228    1.00   0.00  0.00  0.00  0.99  0.00  0.00  0.01  0.00  0.00
  WS02006256WS02006235    1.00   0.00  0.00  0.00  1.00  0.00  0.00  0.00  0.00  0.00
  WS02006253WS02006251    1.00   0.03  0.01  0.00  0.96  0.00  0.00  0.00  0.00  0.00
  WS02006252WS02006251    1.00   0.08  0.00  0.00  0.00  0.00  0.92  0.00  0.00  0.00
  WS02006251WS02006249    1.00   0.00  0.00  0.00  1.00  0.00  0.00  0.00  0.26  0.00
  WS02006249WS02006248    1.00   0.00  0.02  0.00  0.92  0.00  0.06  0.00  0.00  0.00
  WS02006248WS02006247    1.00   0.02  0.00  0.00  0.98  0.00  0.00  0.00  0.16  0.00
  WS02006247WS02006245    1.00   0.02  0.00  0.00  0.98  0.00  0.00  0.00  0.00  0.00
  WS02006245WS02006243    1.00   0.01  0.00  0.00  0.94  0.00  0.00  0.04  0.01  0.00
  WS02006243WS02006242    1.00   0.01  0.00  0.00  0.99  0.00  0.00  0.00  0.26  0.00
  WS02006242WS02006240    1.00   0.00  0.00  0.00  1.00  0.00  0.00  0.00  0.00  0.00
  WS02006240WS02006239    1.00   0.00  0.00  0.00  0.96  0.00  0.00  0.04  0.01  0.00
  WS02006239WS02006238    1.00   0.00  0.00  0.00  1.00  0.00  0.00  0.00  0.00  0.00
  WS02006238WS02006235    1.00   0.00  0.00  0.00  1.00  0.00  0.00  0.00  0.00  0.00
  WS02006235WS02006234    1.00   0.00  0.00  0.00  0.96  0.00  0.04  0.00  0.00  0.00
  WS02006234WS02006232    1.00   0.00  0.00  0.00  1.00  0.00  0.00  0.00  0.16  0.00
  WS02006232WS02006231    1.00   0.00  0.00  0.00  0.99  0.00  0.00  0.00  0.00  0.00
  WS02006231WS02006230    1.00   0.00  0.00  0.00  0.45  0.00  0.55  0.00  0.00  0.00
  WS02006230WS02006229    1.00   0.00  0.00  0.00  0.99  0.00  0.00  0.01  0.01  0.00
  WS02006228WS02006109    1.00   0.00  0.00  0.00  1.00  0.00  0.00  0.00  0.00  0.00
  WS02006116WS02004401    1.00   0.02  0.00  0.00  0.98  0.00  0.00  0.00  0.00  0.00
  WS02006115WS02006116    1.00   0.02  0.00  0.00  0.97  0.00  0.00  0.01  0.00  0.00
  WS02006113WS02006111    1.00   0.02  0.00  0.00  0.00  0.98  0.00  0.00  0.10  0.00
  WS02006112WS02006115    1.00   0.02  0.00  0.00  0.97  0.00  0.00  0.00  0.00  0.00
  WS02006111WS02006112    1.00   0.02  0.00  0.00  0.98  0.00  0.00  0.00  0.98  0.00
  WS02006110WS02006113    1.00   0.01  0.01  0.00  0.98  0.00  0.00  0.00  0.00  0.00
  WS02006109WS02006110    1.00   0.00  0.01  0.00  0.98  0.00  0.01  0.00  0.00  0.00
  WS02004411WS02004412    1.00   0.04  0.00  0.00  0.96  0.00  0.00  0.00  0.00  0.00
  WS02004401WS02004402    1.00   0.02  0.00  0.00  0.98  0.00  0.00  0.00  0.00  0.00
  WS02004413WS02003067    1.00   0.04  0.01  0.00  0.00  0.00  0.95  0.00  0.00  0.00
  WS02004412WS02004413    1.00   0.04  0.00  0.00  0.96  0.00  0.00  0.00  0.03  0.00
  WS02004410WS02004411    1.00   0.04  0.00  0.00  0.96  0.00  0.00  0.00  0.04  0.00
  WS02004409WS02004410    1.00   0.04  0.00  0.00  0.96  0.00  0.00  0.00  0.04  0.00
  WS02004407WS02004409    1.00   0.04  0.00  0.00  0.96  0.00  0.00  0.00  0.89  0.00
  WS02004406WS02004407    1.00   0.00  0.04  0.00  0.96  0.00  0.00  0.00  0.00  0.00
  WS02004405WS02004406    1.00   0.00  0.00  0.00  1.00  0.00  0.00  0.00  0.00  0.00
  WS02004404WS02004405    1.00   0.00  0.00  0.00  1.00  0.00  0.00  0.00  0.00  0.00
  WS02004403WS02004404    1.00   0.00  0.03  0.00  0.97  0.00  0.00  0.00  0.01  0.00
  WS02004402WS02004403    1.00   0.02  0.00  0.00  0.98  0.00  0.00  0.00  0.00  0.00
  WS02004139WS02001211    1.00   0.00  0.00  0.00  1.00  0.00  0.00  0.00  0.00  0.00
  WS02004138WS02004139    1.00   0.00  0.00  0.00  0.99  0.01  0.00  0.00  1.00  0.00
  WS02003067WS02003066    1.00   0.05  0.00  0.00  0.94  0.00  0.00  0.00  0.00  0.00
  WS02001213WS02003059    1.00   0.00  0.00  0.00  0.99  0.00  0.00  0.00  0.00  0.00
  WS02001212WS02001213    1.00   0.00  0.00  0.00  0.93  0.00  0.06  0.00  0.00  0.00
  WS02001211WS02001212    1.00   0.00  0.00  0.00  1.00  0.00  0.00  0.00  0.00  0.00
  WS02003072WS02003073    1.00   0.00  0.00  0.00  0.00  0.00  0.00  1.00  0.00  0.00
  WS02003069WS02003072    1.00   0.00  0.00  0.00  0.99  0.01  0.00  0.00  0.23  0.00
  WS02003060WS02003069    1.00   0.00  0.00  0.00  0.99  0.01  0.00  0.00  0.20  0.00
  WS02003059WS02003060    1.00   0.00  0.00  0.00  1.00  0.00  0.00  0.00  0.01  0.00
  HS02004901HS02004770    1.00   0.04  0.00  0.00  0.96  0.00  0.00  0.00  0.03  0.00
  HS02004876HS02004881    1.00   0.02  0.00  0.00  0.98  0.00  0.00  0.00  0.00  0.00
  HS02004870HS02004876    1.00   0.01  0.00  0.00  0.99  0.00  0.00  0.00  0.95  0.00
  HS02004842HS02004848    1.00   0.00  0.04  0.00  0.96  0.00  0.00  0.00  0.68  0.00
  HS02004837HS02004842    1.00   0.00  0.00  0.00  0.99  0.01  0.00  0.00  0.11  0.00
  HS02004830HS02004837    1.00   0.00  0.00  0.00  1.00  0.00  0.00  0.00  0.99  0.00
  HS02004824HS02004830    1.00   0.00  0.00  0.00  1.00  0.00  0.00  0.00  0.00  0.00
  HS02004817HS02004824    1.00   0.00  0.00  0.00  1.00  0.00  0.00  0.00  1.00  0.00
  HS02004770HS02004777    1.00   0.00  0.04  0.00  0.96  0.00  0.00  0.00  0.07  0.00
  HS02004799HS02004480    1.00   0.00  0.02  0.00  0.95  0.00  0.03  0.00  0.00  0.00
  HS02004792HS02004799    1.00   0.00  0.00  0.00  0.99  0.01  0.00  0.00  0.98  0.00
  HS02004788HS02004792    1.00   0.00  0.00  0.00  0.99  0.01  0.00  0.00  0.98  0.00
  HS02004785HS02004788    1.00   0.00  0.00  0.00  1.00  0.00  0.00  0.00  0.00  0.00
  HS02004777HS02004785    1.00   0.00  0.00  0.00  1.00  0.00  0.00  0.00  0.21  0.00
  HS02004480HS02004478    1.00   0.05  0.00  0.00  0.71  0.00  0.00  0.24  0.00  0.00
  HS02004479HS02004480    1.00   0.03  0.00  0.00  0.97  0.00  0.00  0.00  0.16  0.00
  HS02004862HS02004870    1.00   0.00  0.00  0.00  1.00  0.00  0.00  0.00  0.05  0.00
  HS02004848HS02004852    1.00   0.04  0.00  0.00  0.96  0.00  0.00  0.00  0.71  0.00
  HS02004856HS02004862    1.00   0.00  0.06  0.00  0.94  0.00  0.00  0.00  0.74  0.00
  HS02004852HS02004856    1.00   0.04  0.01  0.00  0.95  0.00  0.00  0.00  0.82  0.00
  HS02004802HS02004478    1.00   0.04  0.01  0.00  0.95  0.00  0.00  0.00  0.00  0.00
  HS02004478WS02006287    1.00   0.05  0.00  0.00  0.86  0.09  0.00  0.00  0.76  0.00
  HS02004817HS02004807    1.00   0.00  0.04  0.00  0.96  0.00  0.00  0.00  0.00  0.00
  HS02004807HS02004802    1.00   0.04  0.00  0.00  0.95  0.00  0.00  0.00  0.01  0.00
  YS02001759YS02001757    1.00   0.00  0.00  0.00  1.00  0.00  0.00  0.00  0.17  0.00
  YS02001762YS02001759    1.00   0.00  0.00  0.00  1.00  0.00  0.00  0.00  0.05  0.00
  YS02001765YS02001762    1.00   0.00  0.00  0.00  1.00  0.00  0.00  0.00  0.22  0.00
  YS02001770YS02001767    1.00   0.00  0.00  0.00  1.00  0.00  0.00  0.00  0.00  0.00
  YS02001774YS02001770    1.00   0.00  0.05  0.00  0.95  0.00  0.00  0.00  0.06  0.00
  YS02001779YS02001774    1.00   0.00  0.00  0.00  1.00  0.00  0.00  0.00  0.26  0.00
  YS02001649YS02001757    1.00   0.00  0.00  0.00  1.00  0.00  0.00  0.00  0.19  0.00
  YS02001767YS02001765    1.00   0.00  0.00  0.00  1.00  0.00  0.00  0.00  0.01  0.00
  YS02006561YS02001783    1.00   0.07  0.00  0.00  0.00  0.93  0.00  0.00  0.69  0.00
  YS02001783YS02001784    1.00   0.00  0.07  0.00  0.93  0.00  0.00  0.00  0.00  0.00
  YS02001784YS02001785    1.00   0.00  0.00  0.00  1.00  0.00  0.00  0.00  0.25  0.00
  YS02001788YS02001790    1.00   0.00  0.00  0.00  0.07  0.93  0.00  0.00  0.75  0.00
  YS02001790YS02001791    1.00   0.00  0.00  0.00  0.02  0.98  0.00  0.00  0.57  0.00
  YS02001791YS02001793    1.00   0.00  0.00  0.00  0.00  1.00  0.00  0.00  0.00  0.00
  YS02001910YS02001907    1.00   0.00  0.00  0.00  0.97  0.00  0.00  0.02  0.13  0.00
  YS02001786YS02001788    1.00   0.00  0.00  0.00  0.07  0.93  0.00  0.00  0.00  0.00
  YS02001915YS02001910    1.00   0.00  0.00  0.00  0.99  0.01  0.00  0.00  0.24  0.00
  YS02001918YS02001915    1.00   0.00  0.01  0.00  0.98  0.01  0.00  0.00  0.75  0.00
  YS02001923YS02001920    1.00   0.00  0.00  0.00  1.00  0.00  0.00  0.00  1.00  0.00
  YS02001926YS02001923    1.00   0.00  0.03  0.00  0.00  0.00  0.97  0.00  0.00  0.00
  YS02001929YS02001926    1.00   0.00  0.04  0.00  0.96  0.00  0.00  0.00  0.86  0.00
  YS02001920YS02001918    1.00   0.00  0.01  0.00  0.99  0.00  0.00  0.00  0.00  0.00
  YS02001629YS02163301    1.00   0.06  0.00  0.00  0.94  0.00  0.00  0.00  0.00  0.00
  YS02001619YS02001622    1.00   0.04  0.00  0.00  0.96  0.00  0.00  0.00  0.00  0.00
  YS02001622YS02001625    1.00   0.04  0.00  0.00  0.96  0.00  0.00  0.00  0.13  0.00
  YS02001625YS02001629    1.00   0.04  0.02  0.00  0.92  0.00  0.02  0.00  0.00  0.00
  YS02163301YS02001633    1.00   0.00  0.06  0.00  0.94  0.00  0.00  0.00  0.00  0.00
  YS02163601YS02164001    1.00   0.00  0.03  0.00  0.97  0.00  0.00  0.00  0.00  0.00
  YS02164001YS02001641    1.00   0.01  0.03  0.00  0.97  0.00  0.00  0.00  0.07  0.00
  YS02001641YS02001644    1.00   0.00  0.01  0.00  0.99  0.00  0.00  0.00  0.00  0.00
  YS02001647YS02001649    1.00   0.00  0.06  0.00  0.94  0.00  0.00  0.00  0.01  0.00
  YS02006553YS02006556    1.00   0.01  0.00  0.00  0.99  0.00  0.00  0.00  0.03  0.00
  YS02006556YS02006558    1.00   0.00  0.00  0.00  1.00  0.00  0.00  0.00  0.00  0.00
  YSB6556YSB1171          1.00   0.03  0.01  0.00  0.96  0.00  0.00  0.00  0.00  0.00
  YS02001907YS02006553    1.00   0.00  0.02  0.00  0.98  0.00  0.00  0.00  0.00  0.00
  YS02006558YS02006561    1.00   0.07  0.00  0.00  0.00  0.93  0.00  0.00  0.67  0.00
  YS02001633YS02163601    1.00   0.00  0.01  0.00  0.99  0.00  0.00  0.00  0.20  0.00
  YS02001644YS02001647    1.00   0.00  0.06  0.00  0.94  0.00  0.00  0.00  0.00  0.00
  YS02001745YS02001748    1.00   0.00  0.00  0.00  0.87  0.02  0.00  0.11  0.20  0.00
  YS02001748YS02001751    1.00   0.00  0.00  0.00  0.98  0.02  0.00  0.00  0.24  0.00
  YS02001751YS02001754    1.00   0.00  0.00  0.00  0.93  0.00  0.00  0.07  0.01  0.00
  YS02001754YS02001757    1.00   0.00  0.00  0.00  0.99  0.01  0.00  0.00  0.26  0.00
  YS02001882YS02001884    1.00   0.06  0.00  0.00  0.94  0.00  0.00  0.00  0.00  0.00
  YS02001884YS02001887    1.00   0.03  0.01  0.00  0.96  0.00  0.00  0.00  0.00  0.00
  YS02001890YS02001895    1.00   0.00  0.06  0.00  0.94  0.00  0.00  0.00  0.00  0.00
  YS02001895YS02001898    1.00   0.06  0.00  0.00  0.93  0.00  0.01  0.00  0.00  0.00
  YS02001898YS02001901    1.00   0.06  0.00  0.00  0.94  0.00  0.00  0.00  0.02  0.00
  YS02001901YS02001904    1.00   0.06  0.00  0.00  0.94  0.00  0.00  0.00  0.00  0.00
  YS02001904YS02001907    1.00   0.00  0.06  0.00  0.94  0.00  0.00  0.00  0.00  0.00
  YS02001887YS02001890    1.00   0.00  0.00  0.00  0.97  0.00  0.02  0.00  0.00  0.00
  YS02001652YS02001649    1.00   0.00  0.00  0.00  1.00  0.00  0.00  0.00  0.26  0.00
  YS02001655YS02001652    1.00   0.00  0.00  0.00  0.93  0.00  0.00  0.07  0.02  0.00
  YS02001658YS02001655    1.00   0.00  0.05  0.00  0.92  0.03  0.00  0.00  0.09  0.00
  YS02001661YS02001658    1.00   0.05  0.00  0.00  0.87  0.08  0.00  0.00  0.19  0.00
  YS02001664YS02001661    1.00   0.04  0.00  0.00  0.70  0.26  0.00  0.00  0.86  0.00
  YSB1154YSB6556          1.00   0.04  0.00  0.00  0.96  0.00  0.00  0.00  0.02  0.00
  YSB1174YSB1171          1.00   0.03  0.01  0.00  0.96  0.00  0.00  0.00  0.00  0.00
  YSB1171HS02004479       1.00   0.03  0.00  0.00  0.97  0.00  0.00  0.00  0.13  0.00
  HS02004881HS02006253    1.00   0.03  0.00  0.00  0.91  0.00  0.00  0.06  0.70  0.00
  YS02001793JiankangQianchi    1.00   0.00  0.00  0.00  0.02  0.98  0.00  0.00  0.02  0.00
  YS02001757CaochengTiaoxuchi    1.00   0.00  0.08  0.00  0.92  0.00  0.00  0.00  0.00  0.00
  WSF200WS02003060        1.00   0.00  0.06  0.00  0.94  0.00  0.00  0.00  0.31  0.00
  1                       1.00   0.00  0.00  0.00  0.00  1.00  0.00  0.00  0.19  0.00
  2                       1.00   1.00  0.00  0.00  0.00  0.00  0.00  0.00  0.00  0.00
  3                       1.00   0.05  0.00  0.00  0.00  0.95  0.00  0.00  0.26  0.00
  4                       1.00   1.00  0.00  0.00  0.00  0.00  0.00  0.00  0.00  0.00
  
  
  *************************
  Conduit Surcharge Summary
  *************************
  
  ----------------------------------------------------------------------------
                                                           Hours        Hours 
                         --------- Hours Full --------   Above Full   Capacity
  Conduit                Both Ends  Upstream  Dnstream   Normal Flow   Limited
  ----------------------------------------------------------------------------
  WS02006229WS02006228        0.95      1.02      0.95      5.58         0.95
  WS02006256WS02006235        5.73      5.73      6.54      5.81         0.01
  WS02006249WS02006248        0.01      0.01      0.01      5.49         0.01
  WS02006247WS02006245        0.01      0.01      0.01      5.49         0.01
  WS02006242WS02006240        0.01      0.01      0.03      0.01         0.01
  WS02006239WS02006238        0.21      0.21      0.37      0.01         0.01
  WS02006238WS02006235        0.33      0.33      0.52      0.01         0.01
  WS02006235WS02006234        0.01      0.01      0.26      5.75         0.01
  WS02006234WS02006232        0.09      0.09      0.73      0.01         0.01
  WS02006232WS02006231        0.01      0.01      0.73      0.01         0.01
  WS02006231WS02006230        0.01      0.01      0.01      5.74         0.01
  WS02006230WS02006229        1.62      5.26      1.62      5.83         1.62
  WS02006228WS02006109        0.98      1.26      0.98      5.60         0.98
  WS02006112WS02006115        0.01      0.01      0.32      0.01         0.01
  WS02006111WS02006112        0.01      0.01      5.52      0.01         0.01
  WS02006110WS02006113        0.01      0.01      1.12      0.01         0.01
  WS02006109WS02006110        0.01      0.01      1.26      0.01         0.01
  WS02004405WS02004406        0.01      0.01      0.01      0.16         0.01
  WS02004404WS02004405        0.01      0.01      0.01      5.63         0.01
  WS02003072WS02003073        0.01      0.01      0.01      5.53         0.01
  YS02001759YS02001757        5.27      5.27      5.38      0.01         0.01
  YS02001762YS02001759        5.22      5.22      5.27      0.01         0.02
  YS02001765YS02001762        5.14      5.14      5.22      0.01         0.01
  YS02001770YS02001767        5.00      5.01      5.02      0.01         0.72
  YS02001774YS02001770        4.62      4.62      5.19      0.01         0.01
  YS02001779YS02001774        2.14      2.14      5.19      0.01         0.01
  YS02001649YS02001757        5.24      5.24      5.38      0.01         0.01
  YS02001767YS02001765        5.02      5.02      5.14      0.01         0.02
  YS02001629YS02163301        4.36      4.36      4.94      0.01         0.01
  YS02001622YS02001625        0.01      0.01      3.87      0.01         0.01
  YS02001625YS02001629        0.01      0.01      3.87      0.01         0.01
  YS02163301YS02001633        4.94      4.94      5.16      0.01         0.01
  YS02163601YS02164001        5.15      5.15      5.24      0.01         0.01
  YS02164001YS02001641        5.15      5.15      5.18      0.01         0.01
  YS02001641YS02001644        5.18      5.18      5.19      0.01         0.36
  YS02001647YS02001649        3.76      3.76      5.24      0.01         0.01
  YS02001633YS02163601        5.12      5.12      5.24      0.01         0.01
  YS02001644YS02001647        3.76      3.76      5.19      0.01         0.01
  YS02001751YS02001754        0.01      0.01      2.82      0.01         0.01
  YS02001754YS02001757        3.79      3.79      5.38      0.01         0.01
  YS02001652YS02001649        3.97      3.97      5.24      0.01         0.01
  YS02001655YS02001652        0.01      0.01      3.52      0.01         0.01
  YS02001793JiankangQianchi        0.01      0.01      0.09      0.01         0.01
  YS02001757CaochengTiaoxuchi        0.01      0.01      5.38      0.01         0.01
  
  
  ***************
  Pumping Summary
  ***************
  
  ---------------------------------------------------------------------------------------------------------
                                                  Min       Avg       Max     Total     Power    % Time Off
                        Percent   Number of      Flow      Flow      Flow    Volume     Usage    Pump Curve
  Pump                 Utilized   Start-Ups       LPS       LPS       LPS  10^6 ltr     Kw-hr    Low   High
  ---------------------------------------------------------------------------------------------------------
  CC-Pump-1               40.42           1      0.00    194.73    200.00     2.220      5.43    0.0    0.0
  CC-Pump-2               32.69           1      0.00    191.72    200.00     1.755      5.63    0.0   32.3
  JK-Pump-1              100.00           1      0.00    165.03    300.00     3.472     68.06    0.0    0.0
  JK-Pump-2               76.58           1      0.00    168.00    300.00     3.286     65.14    0.0    0.0
  XR-Pump-1              100.00           1      0.00     95.00     95.00     2.679     52.96    0.0    0.0
  XR-Pump-2               38.28           1      0.00     92.06     95.00     0.969     18.61    0.0    0.0
  XR-Pump-3              100.00           1      0.00     95.00     95.00     2.679     52.96    0.0    0.0
  XR-Pump-4               76.58           1      0.00     94.79     95.00     2.023     45.64    0.0    0.0
  

  Analysis begun on:  Tue Dec 21 17:45:26 2021
  Analysis ended on:  Tue Dec 21 17:45:29 2021
  Total elapsed time: 00:00:03