
  EPA STORM WATER MANAGEMENT MODEL - VERSION 5.1 (Build 5.3.0.dev0)
  --------------------------------------------------------------

  WARNING 04: minimum elevation drop used for Conduit WS02004404WS02004405
  WARNING 03: negative offset ignored for Link YS02001904YS02001907
  
  *********************************************************
  NOTE: The summary statistics displayed in this report are
  based on results found at every computational time step,  
  not just on results from each reporting time step.
  *********************************************************
  
  ****************
  Analysis Options
  ****************
  Flow Units ............... LPS
  Process Models:
    Rainfall/Runoff ........ YES
    RDII ................... NO
    Snowmelt ............... NO
    Groundwater ............ NO
    Flow Routing ........... YES
    Ponding Allowed ........ NO
    Water Quality .......... NO
  Infiltration Method ...... HORTON
  Flow Routing Method ...... DYNWAVE
  Surcharge Method ......... EXTRAN
  Starting Date ............ 08/28/2015 08:00:00
  Ending Date .............. 08/28/2015 15:50:00
  Antecedent Dry Days ...... 8.0
  Report Time Step ......... 00:01:00
  Wet Time Step ............ 00:01:00
  Dry Time Step ............ 00:01:00
  Routing Time Step ........ 5.00 sec
  Variable Time Step ....... YES
  Maximum Trials ........... 8
  Number of Threads ........ 4
  Head Tolerance ........... 0.001500 m
  
  
  **************************        Volume         Depth
  Runoff Quantity Continuity     hectare-m            mm
  **************************     ---------       -------
  Total Precipitation ......         1.797         3.934
  Evaporation Loss .........         0.000         0.000
  Infiltration Loss ........         0.413         0.905
  Surface Runoff ...........         0.073         0.159
  Final Storage ............         1.313         2.874
  Continuity Error (%) .....        -0.116
  
  
  **************************        Volume        Volume
  Flow Routing Continuity        hectare-m      10^6 ltr
  **************************     ---------     ---------
  Dry Weather Inflow .......         0.146         1.455
  Wet Weather Inflow .......         0.070         0.697
  Groundwater Inflow .......         0.000         0.000
  RDII Inflow ..............         0.000         0.000
  External Inflow ..........         0.024         0.242
  External Outflow .........         0.186         1.856
  Flooding Loss ............         0.000         0.000
  Evaporation Loss .........         0.000         0.000
  Exfiltration Loss ........         0.000         0.000
  Initial Stored Volume ....         0.076         0.761
  Final Stored Volume ......         0.138         1.378
  Continuity Error (%) .....        -2.535
  
  
  *************************
  Highest Continuity Errors
  *************************
  Node YS02001757 (98.21%)
  Node YS02001774 (77.67%)
  Node HS02004842 (77.63%)
  Node YS02163601 (74.28%)
  Node YS02001884 (71.91%)
  
  
  ***************************
  Time-Step Critical Elements
  ***************************
  Link 3 (34.85%)
  Link WS02006280WS02006229 (20.28%)
  Link WS02006238WS02006235 (6.35%)
  
  
  ********************************
  Highest Flow Instability Indexes
  ********************************
  Link WS02004404WS02004405 (7)
  Link WS02004403WS02004404 (7)
  Link WS02004402WS02004403 (6)
  Link WS02004405WS02004406 (6)
  Link WS02004401WS02004402 (4)
  
  
  *************************
  Routing Time Step Summary
  *************************
  Minimum Time Step           :     0.53 sec
  Average Time Step           :     3.02 sec
  Maximum Time Step           :     5.00 sec
  Percent in Steady State     :     0.00
  Average Iterations per Step :     2.03
  Percent Not Converging      :     0.00
  
  
  ***************************
  Subcatchment Runoff Summary
  ***************************
  
  ------------------------------------------------------------------------------------------------------------------------------
                            Total      Total      Total      Total     Imperv       Perv      Total       Total     Peak  Runoff
                           Precip      Runon       Evap      Infil     Runoff     Runoff     Runoff      Runoff   Runoff   Coeff
  Subcatchment                 mm         mm         mm         mm         mm         mm         mm    10^6 ltr      LPS
  ------------------------------------------------------------------------------------------------------------------------------
  sub0                       3.93       0.00       0.00       0.28       1.58       0.00       1.58        0.00     1.04   0.402
  sub1                       3.93       0.00       0.00       0.43       0.92       0.00       0.92        0.01     6.02   0.235
  sub2                       3.93       0.00       0.00       1.45       0.56       0.00       0.56        0.01     5.28   0.142
  sub3                       3.93       0.00       0.00       1.45       0.45       0.00       0.45        0.01    10.57   0.114
  sub4                       3.93       0.00       0.00       0.43       0.51       0.00       0.51        0.01    11.41   0.128
  sub5                       3.93       0.00       0.00       0.28       0.97       0.00       0.97        0.01    10.71   0.245
  sub7                       3.93       0.00       0.00       0.35       1.21       0.00       1.21        0.00     3.71   0.308
  sub8                       3.93       0.00       0.00       0.35       1.11       0.00       1.11        0.01     6.63   0.281
  sub9                       3.93       0.00       0.00       0.35       1.08       0.00       1.08        0.01     4.92   0.276
  sub10                      3.93       0.00       0.00       0.31       1.00       0.00       1.00        0.01    10.69   0.255
  sub11                      3.93       0.00       0.00       0.31       1.15       0.00       1.15        0.01    12.44   0.293
  sub12                      3.93       0.00       0.00       0.51       1.34       0.00       1.34        0.01    10.03   0.342
  sub14                      3.93       0.00       0.00       0.35       1.07       0.00       1.07        0.01     9.63   0.271
  sub15                      3.93       0.00       0.00       1.18       0.80       0.00       0.80        0.01    13.09   0.202
  sub16                      3.93       0.00       0.00       1.30       0.98       0.00       0.98        0.01     8.98   0.249
  sub17                      3.93       0.00       0.00       1.26       0.96       0.00       0.96        0.01     7.32   0.244
  sub22                      3.93       0.00       0.00       1.69       0.73       0.00       0.73        0.05    42.45   0.185
  sub23                      3.93       0.00       0.00       1.45       0.83       0.00       0.83        0.04    36.02   0.210
  sub60                      3.93       0.00       0.00       0.47       0.11       0.00       0.11        0.03    40.39   0.029
  sub61                      3.93       0.00       0.00       0.67       0.16       0.00       0.16        0.05    55.76   0.040
  sub62                      3.93       0.00       0.00       0.31       0.15       0.00       0.15        0.05    55.39   0.039
  sub63                      3.93       0.00       0.00       1.14       0.15       0.00       0.15        0.05    54.10   0.039
  sub64                      3.93       0.00       0.00       0.59       0.11       0.00       0.11        0.03    38.10   0.027
  sub65                      3.93       0.00       0.00       0.51       0.11       0.00       0.11        0.03    38.40   0.027
  sub66                      3.93       0.00       0.00       1.14       0.10       0.00       0.10        0.03    35.96   0.025
  sub67                      3.93       0.00       0.00       0.31       0.22       0.00       0.22        0.07    77.79   0.056
  sub68                      3.93       0.00       0.00       0.55       0.18       0.00       0.18        0.05    63.19   0.045
  sub69                      3.93       0.00       0.00       0.59       0.26       0.00       0.26        0.06    69.53   0.066
  sub70                      3.93       0.25       0.00       1.39       0.13       0.00       0.13        0.03    35.66   0.030
  sub71                      3.93       0.00       0.00       0.31       0.13       0.00       0.13        0.03    37.36   0.034
  sub72                      3.93       0.00       0.00       0.28       0.06       0.00       0.06        0.01    15.06   0.016
  sub73                      3.93       0.11       0.00       1.37       0.11       0.00       0.11        0.03    32.19   0.028
  sub74                      3.93       0.00       0.00       2.95       0.09       0.00       0.09        0.04    40.24   0.023
  
  
  ******************
  Node Depth Summary
  ******************
  
  ---------------------------------------------------------------------------------
                                 Average  Maximum  Maximum  Time of Max    Reported
                                   Depth    Depth      HGL   Occurrence   Max Depth
  Node                 Type       Meters   Meters   Meters  days hr:min      Meters
  ---------------------------------------------------------------------------------
  WS02001211           JUNCTION     0.59     0.69     5.53     0  01:11        0.69
  WS02001212           JUNCTION     0.32     0.40     5.46     0  01:12        0.40
  WS02001213           JUNCTION     0.43     0.60     5.36     0  01:50        0.60
  WS02003069           JUNCTION     0.23     0.33     4.92     0  01:50        0.33
  WS02003072           JUNCTION     0.27     0.40     4.77     0  01:50        0.40
  WS02003073           JUNCTION     0.15     0.23     4.29     0  01:50        0.23
  WS02003060           JUNCTION     0.21     0.30     5.23     0  01:50        0.30
  WS02003066           JUNCTION     0.01     0.13     5.69     0  01:50        0.13
  WS02003059           JUNCTION     0.48     0.65     5.33     0  01:50        0.65
  WS02003067           JUNCTION     0.05     0.39     5.71     0  01:50        0.38
  WS02004401           JUNCTION     0.22     0.49     6.49     0  01:50        0.48
  WS02004402           JUNCTION     0.24     0.53     6.49     0  01:50        0.51
  WS02004403           JUNCTION     0.26     0.55     6.48     0  01:50        0.54
  WS02004404           JUNCTION     0.31     0.63     6.48     0  01:50        0.62
  WS02004406           JUNCTION     0.32     0.65     6.48     0  01:50        0.64
  WS02004409           JUNCTION     0.05     0.25     6.02     0  01:50        0.24
  WS02004410           JUNCTION     0.05     0.27     5.99     0  01:50        0.26
  WS02004411           JUNCTION     0.06     0.29     5.97     0  01:50        0.28
  WS02004412           JUNCTION     0.06     0.32     5.96     0  01:50        0.31
  WS02004413           JUNCTION     0.12     0.49     5.96     0  01:50        0.48
  WS02004405           JUNCTION     0.31     0.63     6.48     0  01:50        0.62
  WS02006109           JUNCTION     0.34     0.64     7.26     0  01:50        0.61
  WS02006110           JUNCTION     0.34     0.65     7.23     0  01:50        0.62
  WS02006111           JUNCTION     0.06     0.17     6.88     0  01:50        0.16
  WS02006112           JUNCTION     0.33     0.66     6.54     0  01:50        0.64
  WS02006113           JUNCTION     0.08     0.26     7.15     0  01:50        0.24
  WS02006115           JUNCTION     0.15     0.38     6.52     0  01:50        0.36
  WS02006116           JUNCTION     0.20     0.46     6.50     0  01:50        0.44
  WS02006230           JUNCTION     0.28     0.55     7.30     0  01:50        0.51
  WS02006231           JUNCTION     0.15     0.31     7.44     0  00:10        0.31
  WS02006232           JUNCTION     0.25     0.43     7.47     0  00:10        0.43
  WS02006234           JUNCTION     0.14     0.32     7.48     0  00:10        0.32
  WS02006235           JUNCTION     0.18     0.35     7.52     0  00:10        0.35
  WS02006238           JUNCTION     0.20     0.37     7.52     0  00:10        0.37
  WS02006240           JUNCTION     0.09     0.23     7.52     0  01:50        0.22
  WS02006242           JUNCTION     0.11     0.26     7.53     0  00:11        0.26
  WS02006243           JUNCTION     0.03     0.11     7.53     0  00:11        0.11
  WS02006245           JUNCTION     0.03     0.13     7.62     0  01:50        0.13
  WS02006247           JUNCTION     0.04     0.15     7.65     0  01:50        0.15
  WS02006248           JUNCTION     0.02     0.12     7.70     0  01:50        0.11
  WS02006249           JUNCTION     0.04     0.16     7.76     0  01:50        0.16
  WS02006239           JUNCTION     0.14     0.31     7.52     0  00:10        0.31
  WS02006251           JUNCTION     0.03     0.14     7.81     0  01:50        0.13
  WS02006252           JUNCTION     0.00     0.00     8.24     0  00:00        0.00
  WS02006253           JUNCTION     0.05     0.20     7.84     0  01:50        0.19
  WS02006256           JUNCTION     0.63     1.19     8.12     0  00:09        1.17
  WS02004138           JUNCTION     0.16     0.17     7.42     0  00:10        0.17
  WS02004407           JUNCTION     0.03     0.13     6.44     0  01:50        0.12
  WS02006228           JUNCTION     0.32     0.62     7.27     0  01:50        0.59
  WS02006229           JUNCTION     0.30     0.59     7.29     0  01:50        0.56
  WS02006280           JUNCTION     0.03     0.12     8.39     0  01:50        0.12
  WS02006284           JUNCTION     0.21     0.45     8.85     0  01:50        0.45
  WS02006287           JUNCTION     0.04     0.18     9.14     0  01:50        0.18
  WSF200               JUNCTION     0.01     0.09     5.32     0  01:50        0.08
  HS02004901           JUNCTION     0.05     0.21    10.03     0  01:50        0.21
  HS02004881           JUNCTION     0.00     0.02     9.05     0  01:50        0.02
  HS02004876           JUNCTION     0.02     0.09     9.12     0  01:50        0.09
  HS02004870           JUNCTION     0.01     0.03     9.32     0  01:50        0.03
  HS02004862           JUNCTION     0.01     0.04     9.42     0  01:50        0.04
  HS02004856           JUNCTION     0.02     0.10     9.52     0  01:50        0.10
  HS02004852           JUNCTION     0.00     0.02     9.53     0  01:50        0.02
  HS02004848           JUNCTION     0.00     0.02     9.62     0  01:50        0.02
  HS02004842           JUNCTION     0.21     0.35     9.62     0  01:50        0.35
  HS02004837           JUNCTION     0.02     0.04     9.62     0  01:50        0.04
  HS02004830           JUNCTION     0.03     0.06     9.52     0  01:50        0.05
  HS02004824           JUNCTION     0.01     0.03     9.44     0  01:50        0.03
  HS02004817           JUNCTION     0.22     0.50     9.35     0  01:50        0.50
  HS02004807           JUNCTION     0.05     0.18     9.35     0  01:50        0.17
  HS02004802           JUNCTION     0.06     0.21     9.34     0  01:50        0.21
  HS02004799           JUNCTION     0.07     0.22     9.44     0  01:50        0.22
  HS02004792           JUNCTION     0.02     0.08     9.61     0  01:50        0.08
  HS02004788           JUNCTION     0.02     0.06     9.96     0  01:50        0.06
  HS02004785           JUNCTION     0.02     0.11    10.02     0  01:50        0.11
  HS02004777           JUNCTION     0.06     0.23    10.03     0  01:50        0.23
  HS02004770           JUNCTION     0.04     0.20    10.03     0  01:50        0.20
  HS02004480           JUNCTION     0.04     0.17     9.41     0  01:50        0.17
  HS02004479           JUNCTION     0.06     0.21     9.41     0  01:50        0.20
  HS02004478           JUNCTION     0.02     0.11     9.33     0  01:50        0.10
  YS02001745           JUNCTION     0.02     0.09     7.60     0  01:50        0.08
  YS02001748           JUNCTION     0.02     0.10     7.18     0  01:50        0.10
  YS02001751           JUNCTION     0.02     0.09     6.97     0  01:50        0.09
  YS02001754           JUNCTION     0.05     0.31     6.92     0  01:50        0.28
  YS02001762           JUNCTION     0.10     0.52     6.92     0  01:50        0.49
  YS02001765           JUNCTION     0.09     0.47     6.92     0  01:50        0.45
  YS02001767           JUNCTION     0.08     0.43     6.92     0  01:50        0.40
  YS02001770           JUNCTION     0.08     0.43     6.93     0  01:50        0.40
  YS02001774           JUNCTION     0.09     0.50     6.92     0  01:50        0.47
  YS02001779           JUNCTION     0.02     0.24     6.92     0  01:50        0.21
  YS02001882           JUNCTION     0.05     0.30     7.01     0  01:50        0.29
  YS02001884           JUNCTION     0.09     0.39     7.01     0  01:50        0.39
  YS02001759           JUNCTION     0.11     0.55     6.92     0  01:50        0.53
  YS02001887           JUNCTION     0.15     0.47     7.01     0  01:50        0.46
  YS02001890           JUNCTION     0.16     0.50     7.01     0  01:50        0.49
  YS02001898           JUNCTION     0.04     0.25     6.99     0  01:50        0.24
  YS02001901           JUNCTION     0.06     0.38     6.99     0  01:50        0.37
  YS02001904           JUNCTION     0.06     0.36     6.99     0  01:50        0.35
  YS02001907           JUNCTION     0.22     0.70     6.99     0  01:50        0.69
  YS02001910           JUNCTION     0.11     0.48     6.99     0  01:50        0.47
  YS02001915           JUNCTION     0.06     0.27     6.99     0  01:50        0.26
  YS02001918           JUNCTION     0.03     0.06     7.13     0  01:50        0.06
  YS02001619           JUNCTION     0.04     0.15     7.08     0  01:50        0.14
  YS02001629           JUNCTION     0.05     0.37     6.92     0  01:50        0.34
  YS02001641           JUNCTION     0.09     0.48     6.92     0  01:50        0.46
  YS02001644           JUNCTION     0.10     0.48     6.92     0  01:50        0.46
  YS02001652           JUNCTION     0.05     0.32     6.92     0  01:50        0.30
  YS02001655           JUNCTION     0.03     0.11     6.96     0  01:50        0.11
  YS02001920           JUNCTION     0.10     0.16     7.16     0  01:50        0.15
  YS02001923           JUNCTION     0.01     0.06     7.32     0  01:50        0.05
  YS02001926           JUNCTION     0.04     0.13     7.57     0  01:50        0.12
  YS02001929           JUNCTION     0.01     0.06     7.75     0  01:50        0.06
  YS02001658           JUNCTION     0.02     0.10     7.24     0  01:50        0.10
  YS02001661           JUNCTION     0.05     0.17     7.57     0  01:50        0.17
  YS02001664           JUNCTION     0.02     0.09     8.02     0  01:50        0.09
  YS02001622           JUNCTION     0.02     0.12     7.02     0  01:50        0.11
  YS02001633           JUNCTION     0.10     0.46     6.91     0  01:50        0.44
  YS02001649           JUNCTION     0.10     0.53     6.92     0  01:50        0.50
  YS02001757           JUNCTION     0.16     0.66     6.92     0  01:50        0.63
  YS02001895           JUNCTION     0.04     0.26     7.00     0  01:50        0.25
  YS02001625           JUNCTION     0.09     0.42     7.02     0  01:50        0.42
  YS02163301           JUNCTION     0.06     0.40     6.92     0  01:50        0.38
  YS02163601           JUNCTION     0.12     0.52     6.91     0  01:50        0.49
  YS02164001           JUNCTION     0.08     0.46     6.91     0  01:50        0.44
  YS02001647           JUNCTION     0.03     0.31     6.92     0  01:50        0.28
  YSB1154              JUNCTION     0.10     0.36     9.41     0  01:50        0.35
  YSB6556              JUNCTION     0.06     0.24     9.41     0  01:50        0.24
  YSB1174              JUNCTION     0.09     0.30     9.41     0  01:50        0.30
  YSB1171              JUNCTION     0.21     0.51     9.41     0  01:50        0.51
  YS02006553           JUNCTION     0.23     0.70     6.99     0  01:50        0.69
  YS02006561           JUNCTION     0.02     0.14     6.80     0  01:50        0.13
  YS02006556           JUNCTION     0.22     0.68     6.99     0  01:50        0.67
  YS02006558           JUNCTION     0.27     0.72     6.99     0  01:50        0.71
  YS02001783           JUNCTION     0.03     0.24     6.38     0  01:50        0.23
  YS02001784           JUNCTION     0.06     0.27     6.34     0  01:50        0.26
  YS02001786           JUNCTION     0.05     0.22     6.25     0  01:50        0.21
  YS02001788           JUNCTION     0.03     0.16     6.13     0  01:50        0.15
  YS02001790           JUNCTION     0.04     0.19     5.83     0  01:50        0.18
  YS02001791           JUNCTION     0.02     0.12     5.59     0  01:50        0.12
  YS02001793           JUNCTION     0.01     0.08     4.92     0  01:50        0.08
  WS02004139           JUNCTION     0.55     0.63     5.54     0  01:11        0.63
  WSC                  OUTFALL      0.15     0.23     0.90     0  01:50        0.22
  3                    OUTFALL      0.04     0.19     6.19     0  00:09        0.17
  4                    OUTFALL      0.00     0.00     7.00     0  00:00        0.00
  5                    OUTFALL      0.00     0.00     5.00     0  00:00        0.00
  JK-storage           STORAGE      0.47     3.00     3.80     0  00:00        2.97
  CC-storage           STORAGE      0.00     0.00     7.00     0  00:00        0.00
  XR-storage           STORAGE      3.64     5.35     3.35     0  00:07        5.35
  
  
  *******************
  Node Inflow Summary
  *******************
  
  -------------------------------------------------------------------------------------------------
                                  Maximum  Maximum                  Lateral       Total        Flow
                                  Lateral    Total  Time of Max      Inflow      Inflow     Balance
                                   Inflow   Inflow   Occurrence      Volume      Volume       Error
  Node                 Type           LPS      LPS  days hr:min    10^6 ltr    10^6 ltr     Percent
  -------------------------------------------------------------------------------------------------
  WS02001211           JUNCTION      7.35   292.67     0  01:28      0.0489        1.82       2.138
  WS02001212           JUNCTION      0.00   292.67     0  01:49           0        1.79       1.098
  WS02001213           JUNCTION      0.00   292.67     0  01:45           0        1.77       1.207
  WS02003069           JUNCTION      0.32   351.25     0  01:50     0.00213        1.81       1.105
  WS02003072           JUNCTION      0.00   345.54     0  01:50           0        1.79       1.472
  WS02003073           JUNCTION      1.82   340.13     0  01:50      0.0121        1.78       1.539
  WS02003060           JUNCTION     16.53   356.51     0  01:50        0.11        1.83       1.068
  WS02003066           JUNCTION      0.00    53.78     0  01:50           0      0.0107      21.553
  WS02003059           JUNCTION      0.00   292.68     0  01:47           0        1.75       1.990
  WS02003067           JUNCTION      0.00    56.37     0  01:50           0      0.0158      47.647
  WS02004401           JUNCTION      0.00   143.06     0  01:50           0       0.162      10.013
  WS02004402           JUNCTION      0.00   133.03     0  01:50           0       0.147      10.764
  WS02004403           JUNCTION      0.00   124.86     0  01:50           0       0.133      11.189
  WS02004404           JUNCTION      0.16   119.15     0  01:50     0.00108       0.121       9.601
  WS02004406           JUNCTION      0.00   109.52     0  01:50           0      0.0944      37.396
  WS02004409           JUNCTION      0.00    97.54     0  01:50           0      0.0651      10.893
  WS02004410           JUNCTION      0.00    89.85     0  01:50           0      0.0587      15.038
  WS02004411           JUNCTION      0.00    82.08     0  01:50           0       0.051      19.726
  WS02004412           JUNCTION      0.00    73.85     0  01:50           0      0.0426      31.304
  WS02004413           JUNCTION      0.00    67.43     0  01:50           0      0.0325     105.255
  WS02004405           JUNCTION      0.04   115.29     0  01:50    0.000254        0.11      16.789
  WS02006109           JUNCTION      1.23   229.52     0  01:50     0.00819       0.249       8.858
  WS02006110           JUNCTION      0.00   217.48     0  01:50           0       0.228       8.024
  WS02006111           JUNCTION      0.00   189.51     0  01:50           0       0.204       1.727
  WS02006112           JUNCTION      7.31   189.55     0  01:50     0.00797       0.209      12.176
  WS02006113           JUNCTION      0.00   202.17     0  01:50           0       0.211       3.360
  WS02006115           JUNCTION      0.00   172.07     0  01:50           0       0.186       7.137
  WS02006116           JUNCTION      0.00   155.64     0  01:50           0       0.174       7.439
  WS02006230           JUNCTION     10.28   126.24     0  00:10      0.0684       0.168       6.005
  WS02006231           JUNCTION      0.00   120.22     0  00:10           0       0.107       7.149
  WS02006232           JUNCTION      0.00   123.37     0  00:10           0       0.118      10.333
  WS02006234           JUNCTION      0.00   126.47     0  00:10           0       0.121       2.336
  WS02006235           JUNCTION      0.00   158.11     0  00:03           0       0.161       5.032
  WS02006238           JUNCTION      0.00    77.27     0  00:02           0      0.0489       9.593
  WS02006240           JUNCTION      0.00    37.40     0  00:04           0      0.0271      21.939
  WS02006242           JUNCTION      0.00    28.35     0  00:06           0      0.0208      34.791
  WS02006243           JUNCTION      0.00    25.02     0  01:50           0      0.0148       9.609
  WS02006245           JUNCTION      0.00    25.94     0  01:50           0      0.0149      17.159
  WS02006247           JUNCTION      0.00    27.04     0  01:50           0      0.0162      11.606
  WS02006248           JUNCTION      0.00    27.45     0  01:50           0      0.0168       4.079
  WS02006249           JUNCTION      0.00    28.94     0  01:50           0      0.0199      18.582
  WS02006239           JUNCTION      0.00    61.95     0  00:03           0      0.0376      17.365
  WS02006251           JUNCTION      0.08    30.03     0  01:50    0.000513       0.022      10.596
  WS02006252           JUNCTION      0.00     0.00     0  00:00           0           0       0.000 ltr
  WS02006253           JUNCTION      1.04    30.39     0  01:50     0.00124      0.0226       5.397
  WS02006256           JUNCTION      0.00   597.94     0  00:09           0       0.248       1.158
  WS02004138           JUNCTION      0.00   285.00     0  00:10           0        1.81       0.193
  WS02004407           JUNCTION      0.00   101.17     0  01:50           0      0.0687       5.551
  WS02006228           JUNCTION      0.00   239.51     0  01:50           0       0.253       5.377
  WS02006229           JUNCTION      0.00   247.69     0  01:50           0       0.264       4.069
  WS02006280           JUNCTION      0.00   151.85     0  01:50           0       0.105       0.535
  WS02006284           JUNCTION      0.10   153.69     0  01:50    0.000637        0.11       4.747
  WS02006287           JUNCTION      0.00   154.91     0  01:50           0       0.113       3.056
  WSF200               JUNCTION      0.00    52.10     0  01:50           0      0.0088      18.268
  HS02004901           JUNCTION      8.97     8.97     0  01:50     0.00992      0.0101      68.988
  HS02004881           JUNCTION      3.71    29.70     0  01:50     0.00395      0.0223       4.032
  HS02004876           JUNCTION      6.01    26.69     0  01:50     0.00593      0.0221      20.464
  HS02004870           JUNCTION      6.62    21.24     0  01:50     0.00683      0.0175       8.295
  HS02004862           JUNCTION      5.47    15.31     0  01:50     0.00636      0.0121      14.103
  HS02004856           JUNCTION      4.92    10.34     0  01:50     0.00504     0.00823      42.684
  HS02004852           JUNCTION      0.00     5.89     0  01:50           0     0.00401      25.777
  HS02004848           JUNCTION     10.55    10.55     0  01:50     0.00967     0.00967       9.939
  HS02004842           JUNCTION      0.00     4.48     0  00:03           0      0.0179     346.999
  HS02004837           JUNCTION     17.02    20.91     0  01:50      0.0529      0.0569       2.956
  HS02004830           JUNCTION      0.15    20.68     0  01:50    0.000999      0.0432       5.305
  HS02004824           JUNCTION     11.43    31.67     0  01:50      0.0105      0.0515       2.700
  HS02004817           JUNCTION      0.60    31.85     0  01:50     0.00399      0.0541      58.126
  HS02004807           JUNCTION     12.42    42.58     0  01:50      0.0129      0.0472      18.804
  HS02004802           JUNCTION      0.00    40.92     0  01:50           0      0.0402      19.572
  HS02004799           JUNCTION      9.62   103.37     0  01:50     0.00981      0.0949       8.696
  HS02004792           JUNCTION     42.67    95.15     0  01:50      0.0463      0.0891       4.769
  HS02004788           JUNCTION     14.74    53.63     0  01:50      0.0243      0.0463       6.716
  HS02004785           JUNCTION      0.15    40.67     0  01:50    0.000999      0.0285      23.349
  HS02004777           JUNCTION      0.03    42.45     0  01:50      0.0002      0.0375      39.141
  HS02004770           JUNCTION     35.97    44.07     0  01:50      0.0381      0.0441      21.260
  HS02004480           JUNCTION      0.00   118.26     0  01:50           0      0.0974       6.041
  HS02004479           JUNCTION      0.00    17.26     0  01:50           0      0.0215      12.882
  HS02004478           JUNCTION      0.00   155.69     0  01:50           0       0.116       1.878
  YS02001745           JUNCTION     40.26    40.26     0  01:50      0.0329      0.0329       3.024
  YS02001748           JUNCTION      0.04    39.69     0  01:50      0.0003      0.0322       1.786
  YS02001751           JUNCTION      0.01    39.35     0  01:50    7.32e-05      0.0317       4.814
  YS02001754           JUNCTION      0.26    38.88     0  01:50     0.00173       0.032      22.042
  YS02001762           JUNCTION      0.00    45.60     0  01:49           0      0.0239      83.139
  YS02001765           JUNCTION      0.00    33.08     0  01:49           0      0.0203     120.558
  YS02001767           JUNCTION      0.54    27.55     0  01:50     0.00356      0.0257     132.353
  YS02001770           JUNCTION     55.37    55.37     0  01:50      0.0465      0.0465      36.370
  YS02001774           JUNCTION      0.00    26.24     0  01:50           0      0.0148     347.877
  YS02001779           JUNCTION      0.01    10.95     0  01:49    3.33e-05     0.00334   11162.708
  YS02001882           JUNCTION      0.00     3.39     0  01:49           0     0.00298    2975.507 ltr
  YS02001884           JUNCTION      0.00     9.24     0  01:46           0      0.0106     256.018
  YS02001759           JUNCTION     55.62    61.83     0  01:49      0.0462      0.0504      34.499
  YS02001887           JUNCTION     78.00    78.00     0  01:50      0.0677      0.0677      17.571
  YS02001890           JUNCTION      0.00    66.44     0  01:50           0       0.047      29.829
  YS02001898           JUNCTION      0.00    55.99     0  01:50           0        0.03      16.264
  YS02001901           JUNCTION      0.00    50.92     0  01:50           0      0.0269      41.616
  YS02001904           JUNCTION      0.00    45.83     0  01:50           0       0.022      48.342
  YS02001907           JUNCTION      0.00    80.31     0  01:50           0      0.0555      85.202
  YS02001910           JUNCTION      0.00    44.51     0  01:50           0      0.0489      35.831
  YS02001915           JUNCTION     37.25    51.96     0  01:50      0.0306      0.0563      15.652
  YS02001918           JUNCTION      0.00    15.41     0  01:50           0      0.0268       4.209
  YS02001619           JUNCTION     35.84    35.84     0  01:50      0.0293      0.0293       3.633
  YS02001629           JUNCTION      0.00    30.26     0  01:50           0       0.012      44.934
  YS02001641           JUNCTION      0.00    23.88     0  01:43           0      0.0172     129.771
  YS02001644           JUNCTION     38.01    39.71     0  01:50      0.0313      0.0331      55.107
  YS02001652           JUNCTION      0.00    51.33     0  01:50           0      0.0404      16.268
  YS02001655           JUNCTION      0.15    52.23     0  01:50     0.00102      0.0422       4.546
  YS02001920           JUNCTION      2.87    16.25     0  01:50      0.0191      0.0288       7.756
  YS02001923           JUNCTION      0.04    13.59     0  01:50    0.000251      0.0101       3.340
  YS02001926           JUNCTION      0.05    14.84     0  01:50    0.000348      0.0121      23.570
  YS02001929           JUNCTION     15.01    15.01     0  01:50      0.0121      0.0121       2.939
  YS02001658           JUNCTION      0.00    52.82     0  01:50           0      0.0425       3.029
  YS02001661           JUNCTION      0.00    53.60     0  01:50           0      0.0442       4.176
  YS02001664           JUNCTION     53.92    53.92     0  01:50      0.0448      0.0448       1.281
  YS02001622           JUNCTION      0.00    35.46     0  01:50           0      0.0283       9.175
  YS02001633           JUNCTION     38.47    51.11     0  01:49      0.0326      0.0355      63.297
  YS02001649           JUNCTION      0.00    48.25     0  01:50           0       0.037     101.457
  YS02001757           JUNCTION      0.00    57.27     0  01:50           0       0.059    5475.286
  YS02001895           JUNCTION      0.00    60.86     0  01:50           0      0.0362      20.654
  YS02001625           JUNCTION      0.00    34.05     0  01:50           0      0.0259     130.806
  YS02163301           JUNCTION      0.00    24.76     0  01:49           0      0.0126     237.760
  YS02163601           JUNCTION      0.11    34.34     0  01:50    0.000732        0.02     288.864
  YS02164001           JUNCTION      0.00    24.73     0  01:50           0      0.0125     242.804
  YS02001647           JUNCTION      0.00    25.32     0  01:50           0      0.0115     248.247
  YSB1154              JUNCTION     10.69    10.69     0  01:50      0.0105      0.0115      33.301
  YSB6556              JUNCTION      0.00    10.15     0  01:50           0      0.0108      50.856
  YSB1174              JUNCTION     10.02    10.02     0  01:50      0.0114      0.0121      29.391
  YSB1171              JUNCTION      0.00    18.77     0  01:50           0      0.0244      69.092
  YS02006553           JUNCTION      0.00    72.84     0  01:50           0      0.0416      64.818
  YS02006561           JUNCTION      0.00   128.47     0  01:50           0      0.0452       2.832
  YS02006556           JUNCTION      0.00    68.78     0  01:50           0      0.0435      38.266
  YS02006558           JUNCTION     63.87   130.00     0  01:50      0.0581      0.0747       8.012
  YS02001783           JUNCTION      0.00   127.41     0  01:50           0      0.0439       7.287
  YS02001784           JUNCTION      1.06   125.12     0  01:50     0.00706       0.048       9.896
  YS02001786           JUNCTION      0.06   121.16     0  01:50    0.000375       0.044      10.140
  YS02001788           JUNCTION      0.07   116.91     0  01:50    0.000473      0.0405       6.194
  YS02001790           JUNCTION      0.15   113.84     0  01:50     0.00103      0.0391       8.089
  YS02001791           JUNCTION      0.00   109.84     0  01:50           0      0.0362       4.070
  YS02001793           JUNCTION      0.00   107.94     0  01:50           0      0.0348       1.866
  WS02004139           JUNCTION      0.32   285.32     0  00:10     0.00214        1.81       1.993
  WSC                  OUTFALL       0.00   328.81     0  01:50           0        1.75       0.000
  3                    OUTFALL       0.00   443.41     0  00:09           0       0.106       0.000
  4                    OUTFALL       0.00     0.00     0  00:00           0           0       0.000 ltr
  5                    OUTFALL       0.00     0.00     0  00:00           0           0       0.000 ltr
  JK-storage           STORAGE       0.00   107.15     0  01:50           0       0.185     -24.990
  CC-storage           STORAGE       0.00     0.00     0  00:00           0           0       0.000 ltr
  XR-storage           STORAGE     272.20   272.20     0  01:50        1.39        1.99      -0.002
  
  
  **********************
  Node Surcharge Summary
  **********************
  
  No nodes were surcharged.
  
  
  *********************
  Node Flooding Summary
  *********************
  
  No nodes were flooded.
  
  
  **********************
  Storage Volume Summary
  **********************
  
  --------------------------------------------------------------------------------------------------
                         Average     Avg  Evap Exfil       Maximum     Max    Time of Max    Maximum
                          Volume    Pcnt  Pcnt  Pcnt        Volume    Pcnt     Occurrence    Outflow
  Storage Unit           1000 m3    Full  Loss  Loss       1000 m3    Full    days hr:min        LPS
  --------------------------------------------------------------------------------------------------
  JK-storage               0.024       8     0     0         0.151      52       0  00:00     597.94
  CC-storage               0.000       0     0     0         0.000       0       0  00:00       0.00
  XR-storage               0.437      47     0     0         0.642      69       0  00:07     285.00
  
  
  ***********************
  Outfall Loading Summary
  ***********************
  
  -----------------------------------------------------------
                         Flow       Avg       Max       Total
                         Freq      Flow      Flow      Volume
  Outfall Node           Pcnt       LPS       LPS    10^6 ltr
  -----------------------------------------------------------
  WSC                   99.95    203.17    328.81       1.750
  3                     35.16    212.11    443.41       0.106
  4                      0.00      0.00      0.00       0.000
  5                      0.00      0.00      0.00       0.000
  -----------------------------------------------------------
  System                33.78    415.28    447.45       1.856
  
  
  ********************
  Link Flow Summary
  ********************
  
  -----------------------------------------------------------------------------
                                 Maximum  Time of Max   Maximum    Max/    Max/
                                  |Flow|   Occurrence   |Veloc|    Full    Full
  Link                 Type          LPS  days hr:min     m/sec    Flow   Depth
  -----------------------------------------------------------------------------
  WS02003066WSF200     CONDUIT     52.10     0  01:50      1.48    0.01    0.07
  WS02006287WS02006284 CONDUIT    153.59     0  01:50      1.47    0.07    0.19
  WS02006284WS02006280 CONDUIT    151.85     0  01:50      1.70    0.06    0.17
  WS02006280WS02006229 CONDUIT    151.58     0  01:50      2.73    0.03    0.12
  WS02006229WS02006228 CONDUIT    239.51     0  01:50      0.78    0.79    0.74
  WS02006256WS02006235 CONDUIT    158.11     0  00:03      2.30    1.67    1.00
  WS02006253WS02006251 CONDUIT     29.95     0  01:50      0.45    0.09    0.23
  WS02006252WS02006251 CONDUIT      0.00     0  00:00      0.00    0.00    0.00
  WS02006251WS02006249 CONDUIT     28.94     0  01:50      0.48    0.08    0.21
  WS02006249WS02006248 CONDUIT     27.45     0  01:50      0.56    0.15    0.19
  WS02006248WS02006247 CONDUIT     27.04     0  01:50      0.55    0.06    0.19
  WS02006247WS02006245 CONDUIT     25.94     0  01:50      0.49    0.21    0.20
  WS02006245WS02006243 CONDUIT     25.02     0  01:50      0.61    0.07    0.17
  WS02006243WS02006242 CONDUIT     21.58     0  01:50      0.45    0.05    0.24
  WS02006242WS02006240 CONDUIT     29.95     0  00:12      0.62    0.12    0.34
  WS02006240WS02006239 CONDUIT     41.35     0  00:11      0.55    0.13    0.36
  WS02006239WS02006238 CONDUIT     65.82     0  00:11      0.58    0.21    0.47
  WS02006238WS02006235 CONDUIT     93.87     0  00:11      0.91    0.21    0.52
  WS02006235WS02006234 CONDUIT    126.47     0  00:10      0.92    1.33    0.46
  WS02006234WS02006232 CONDUIT    123.37     0  00:10      1.02    0.25    0.54
  WS02006232WS02006231 CONDUIT    120.22     0  00:10      0.63    0.25    0.52
  WS02006231WS02006230 CONDUIT    115.96     0  00:10      0.89    1.76    0.37
  WS02006230WS02006229 CONDUIT    123.06     0  00:10      0.85    2.74    0.78
  WS02006228WS02006109 CONDUIT    228.29     0  01:50      0.72    1.00    0.78
  WS02006116WS02004401 CONDUIT    143.06     0  01:50      0.66    0.20    0.48
  WS02006115WS02006116 CONDUIT    155.64     0  01:50      0.75    0.20    0.39
  WS02006113WS02006111 CONDUIT    189.51     0  01:50      1.76    0.23    0.27
  WS02006112WS02006115 CONDUIT    172.07     0  01:50      0.42    0.10    0.51
  WS02006111WS02006112 CONDUIT    182.24     0  01:50      1.34    0.09    0.50
  WS02006110WS02006113 CONDUIT    202.17     0  01:50      0.69    0.18    0.57
  WS02006109WS02006110 CONDUIT    217.48     0  01:50      0.55    0.42    0.73
  WS02004411WS02004412 CONDUIT     73.85     0  01:50      0.40    0.10    0.31
  WS02004401WS02004402 CONDUIT    133.03     0  01:50      0.71    0.16    0.51
  WS02004413WS02003067 CONDUIT     56.37     0  01:50      0.29    0.02    0.30
  WS02004412WS02004413 CONDUIT     67.43     0  01:50      0.36    0.05    0.40
  WS02004410WS02004411 CONDUIT     82.08     0  01:50      0.46    0.11    0.28
  WS02004409WS02004410 CONDUIT     89.85     0  01:50      0.56    0.12    0.26
  WS02004407WS02004409 CONDUIT     97.54     0  01:50      0.96    0.03    0.19
  WS02004406WS02004407 CONDUIT    101.17     0  01:50      0.36    0.05    0.39
  WS02004405WS02004406 CONDUIT    109.52     0  01:50      0.60    0.22    0.64
  WS02004404WS02004405 CONDUIT    115.25     0  01:50      0.77    1.13    0.63
  WS02004403WS02004404 CONDUIT    118.99     0  01:50      0.70    0.09    0.59
  WS02004402WS02004403 CONDUIT    124.86     0  01:50      0.70    0.18    0.54
  WS02004139WS02001211 CONDUIT    285.32     0  01:28      0.59    0.36    0.51
  WS02004138WS02004139 CONDUIT    285.00     0  00:10      2.13    0.06    0.37
  WS02003067WS02003066 CONDUIT     53.78     0  01:50      0.30    0.02    0.22
  WS02001213WS02003059 CONDUIT    292.68     0  01:47      0.59    0.48    0.61
  WS02001212WS02001213 CONDUIT    292.67     0  01:45      1.19    0.45    0.35
  WS02001211WS02001212 CONDUIT    292.67     0  01:49      0.67    0.22    0.54
  WS02003072WS02003073 CONDUIT    338.31     0  01:50      1.21    0.73    0.30
  WS02003069WS02003072 CONDUIT    345.54     0  01:50      1.18    0.17    0.31
  WS02003060WS02003069 CONDUIT    350.93     0  01:50      1.47    0.14    0.26
  WS02003059WS02003060 CONDUIT    292.72     0  01:47      0.82    0.19    0.48
  HS02004901HS02004770 CONDUIT      8.11     0  01:50      0.04    0.03    0.29
  HS02004876HS02004881 CONDUIT     26.00     0  01:50      0.46    0.28    0.08
  HS02004870HS02004876 CONDUIT     20.68     0  01:50      0.32    0.01    0.09
  HS02004842HS02004848 CONDUIT      4.27     0  01:50      0.02    0.00    0.27
  HS02004837HS02004842 CONDUIT      4.48     0  00:03      0.42    0.00    0.28
  HS02004830HS02004837 CONDUIT     20.53     0  01:50      0.42    0.02    0.07
  HS02004824HS02004830 CONDUIT     20.24     0  01:50      0.45    0.03    0.06
  HS02004817HS02004824 CONDUIT     31.25     0  01:50      0.17    0.01    0.38
  HS02004770HS02004777 CONDUIT     42.42     0  01:50      0.20    0.08    0.31
  HS02004799HS02004480 CONDUIT    101.52     0  01:50      0.53    0.13    0.28
  HS02004792HS02004799 CONDUIT     93.75     0  01:50      0.61    0.06    0.22
  HS02004788HS02004792 CONDUIT     52.48     0  01:50      0.74    0.03    0.10
  HS02004785HS02004788 CONDUIT     38.89     0  01:50      0.45    0.29    0.12
  HS02004777HS02004785 CONDUIT     40.52     0  01:50      0.24    0.05    0.24
  HS02004480HS02004478 CONDUIT    116.08     0  01:50      0.86    0.49    0.19
  HS02004479HS02004480 CONDUIT     16.74     0  01:50      0.23    0.02    0.27
  HS02004862HS02004870 CONDUIT     14.62     0  01:50      0.41    0.02    0.05
  HS02004848HS02004852 CONDUIT      5.89     0  01:50      0.28    0.01    0.03
  HS02004856HS02004862 CONDUIT      9.84     0  01:50      0.30    0.01    0.05
  HS02004852HS02004856 CONDUIT      5.43     0  01:50      0.09    0.01    0.08
  HS02004802HS02004478 CONDUIT     39.61     0  01:50      0.25    0.03    0.23
  HS02004478WS02006287 CONDUIT    154.91     0  01:50      1.16    0.04    0.15
  HS02004817HS02004807 CONDUIT     30.16     0  01:50      0.09    0.02    0.48
  HS02004807HS02004802 CONDUIT     40.92     0  01:50      0.22    0.08    0.27
  YS02001759YS02001757 CONDUIT     24.76     0  01:45      0.14    0.02    0.61
  YS02001762YS02001759 CONDUIT     45.60     0  01:49      0.17    0.05    0.54
  YS02001765YS02001762 CONDUIT     33.08     0  01:49      0.27    0.03    0.50
  YS02001770YS02001767 CONDUIT     21.06     0  01:45      0.30    0.08    0.43
  YS02001774YS02001770 CONDUIT     26.24     0  01:50      0.18    0.02    0.45
  YS02001779YS02001774 CONDUIT     10.95     0  01:49      0.07    0.01    0.37
  YS02001649YS02001757 CONDUIT     29.70     0  01:48      0.09    0.02    0.59
  YS02001767YS02001765 CONDUIT     17.00     0  01:50      0.30    0.02    0.45
  YS02006561YS02001783 CONDUIT    127.41     0  01:50      1.42    0.07    0.23
  YS02001783YS02001784 CONDUIT    124.06     0  01:50      0.92    0.17    0.31
  YS02001784YS02001785 CONDUIT    121.11     0  01:50      0.92    0.28    0.31
  YS02001788YS02001790 CONDUIT    113.69     0  01:50      1.44    0.08    0.21
  YS02001790YS02001791 CONDUIT    109.84     0  01:50      1.60    0.12    0.19
  YS02001791YS02001793 CONDUIT    107.94     0  01:50      2.84    0.05    0.13
  YS02001910YS02001907 CONDUIT     39.46     0  01:50      0.49    0.02    0.58
  YS02001786YS02001788 CONDUIT    116.84     0  01:50      1.27    0.23    0.24
  YS02001915YS02001910 CONDUIT     44.51     0  01:50      0.51    0.02    0.38
  YS02001918YS02001915 CONDUIT     14.71     0  01:50      0.44    0.01    0.17
  YS02001923YS02001920 CONDUIT     13.38     0  01:50      0.30    0.01    0.11
  YS02001926YS02001923 CONDUIT     13.55     0  01:50      0.36    0.02    0.09
  YS02001929YS02001926 CONDUIT     14.78     0  01:50      0.40    0.01    0.09
  YS02001920YS02001918 CONDUIT     15.41     0  01:50      0.33    0.01    0.11
  YS02001629YS02163301 CONDUIT     24.76     0  01:49      0.10    0.03    0.38
  YS02001619YS02001622 CONDUIT     35.46     0  01:50      0.58    0.05    0.13
  YS02001622YS02001625 CONDUIT     34.05     0  01:50      0.24    0.02    0.27
  YS02001625YS02001629 CONDUIT     30.26     0  01:50      0.19    0.01    0.25
  YS02163301YS02001633 CONDUIT     14.62     0  01:49      0.08    0.01    0.43
  YS02163601YS02164001 CONDUIT     24.73     0  01:50      0.07    0.02    0.49
  YS02164001YS02001641 CONDUIT     17.00     0  01:43      0.09    0.02    0.47
  YS02001641YS02001644 CONDUIT     23.88     0  01:43      0.12    0.08    0.48
  YS02001647YS02001649 CONDUIT     20.63     0  01:44      0.13    0.01    0.42
  YS02006553YS02006556 CONDUIT     68.78     0  01:50      0.18    0.06    0.67
  YS02006556YS02006558 CONDUIT     66.14     0  01:50      0.11    0.05    0.70
  YSB6556YSB1171       CONDUIT      9.24     0  01:50      0.05    0.01    0.54
  YS02001907YS02006553 CONDUIT     72.84     0  01:50      0.11    0.09    0.76
  YS02006558YS02006561 CONDUIT    128.47     0  01:50      1.81    0.28    0.30
  YS02001633YS02163601 CONDUIT     34.23     0  01:50      0.10    0.04    0.48
  YS02001644YS02001647 CONDUIT     25.32     0  01:50      0.11    0.01    0.40
  YS02001745YS02001748 CONDUIT     39.64     0  01:50      1.20    0.02    0.09
  YS02001748YS02001751 CONDUIT     39.34     0  01:50      1.01    0.02    0.10
  YS02001751YS02001754 CONDUIT     38.62     0  01:50      0.88    0.02    0.18
  YS02001754YS02001757 CONDUIT     30.46     0  01:49      0.33    0.01    0.48
  YS02001882YS02001884 CONDUIT      3.39     0  01:49      0.09    0.00    0.32
  YS02001884YS02001887 CONDUIT      9.24     0  01:46      0.05    0.01    0.41
  YS02001890YS02001895 CONDUIT     60.86     0  01:50      0.22    0.03    0.38
  YS02001895YS02001898 CONDUIT     55.99     0  01:50      0.46    0.10    0.24
  YS02001898YS02001901 CONDUIT     50.92     0  01:50      0.24    0.03    0.32
  YS02001901YS02001904 CONDUIT     45.83     0  01:50      0.25    0.07    0.37
  YS02001904YS02001907 CONDUIT     40.85     0  01:50      0.10    0.01    0.53
  YS02001887YS02001890 CONDUIT     66.44     0  01:50      0.19    0.11    0.46
  YS02001652YS02001649 CONDUIT     41.15     0  01:48      0.50    0.02    0.42
  YS02001655YS02001652 CONDUIT     51.33     0  01:50      0.93    0.02    0.20
  YS02001658YS02001655 CONDUIT     52.08     0  01:50      1.17    0.02    0.11
  YS02001661YS02001658 CONDUIT     52.82     0  01:50      1.27    0.02    0.10
  YS02001664YS02001661 CONDUIT     53.60     0  01:50      0.89    0.02    0.13
  YSB1154YSB6556       CONDUIT     10.15     0  01:50      0.18    0.02    0.43
  YSB1174YSB1171       CONDUIT      9.59     0  01:50      0.05    0.01    0.54
  YSB1171HS02004479    CONDUIT     17.26     0  01:50      0.54    0.01    0.42
  HS02004881HS02006253 CONDUIT     29.36     0  01:50      1.49    0.01    0.03
  YS02001793JiankangQianchi CONDUIT    107.15     0  01:50      9.55    0.01    0.50
  YS02001757CaochengTiaoxuchi CONDUIT      0.00     0  00:00      0.00    0.00    0.33
  WSF200WS02003060     CONDUIT     50.03     0  01:50      0.42    0.01    0.16
  1                    CONDUIT    328.81     0  01:50      2.42    0.11    0.23
  2                    CONDUIT      0.00     0  00:00      0.00    0.00    0.00
  3                    CONDUIT    443.41     0  00:09     10.02    0.71    0.63
  4                    CONDUIT      0.00     0  00:00      0.00    0.00    0.00
  CC-Pump-1            PUMP         0.00     0  00:00              0.00
  CC-Pump-2            PUMP         0.00     0  00:00              0.00
  JK-Pump-1            PUMP       298.97     0  00:09              1.00
  JK-Pump-2            PUMP       298.97     0  00:09              1.00
  XR-Pump-1            PUMP         0.00     0  00:00              0.00
  XR-Pump-2            PUMP        95.00     0  00:10              1.00
  XR-Pump-3            PUMP        95.00     0  00:10              1.00
  XR-Pump-4            PUMP        95.00     0  00:10              1.00
  
  
  ***************************
  Flow Classification Summary
  ***************************
  
  -------------------------------------------------------------------------------------
                      Adjusted    ---------- Fraction of Time in Flow Class ---------- 
                       /Actual         Up    Down  Sub   Sup   Up    Down  Norm  Inlet 
  Conduit               Length    Dry  Dry   Dry   Crit  Crit  Crit  Crit  Ltd   Ctrl  
  -------------------------------------------------------------------------------------
  WS02003066WSF200        1.00   0.90  0.00  0.00  0.00  0.10  0.00  0.00  0.02  0.00
  WS02006287WS02006284    1.00   0.53  0.18  0.00  0.06  0.24  0.00  0.00  0.19  0.00
  WS02006284WS02006280    1.00   0.62  0.00  0.00  0.00  0.00  0.00  0.38  0.00  0.00
  WS02006280WS02006229    1.00   0.62  0.00  0.00  0.00  0.00  0.00  0.38  0.00  0.00
  WS02006229WS02006228    1.00   0.00  0.00  0.00  0.89  0.00  0.00  0.11  0.00  0.00
  WS02006256WS02006235    1.00   0.00  0.00  0.00  0.97  0.02  0.00  0.00  0.00  0.00
  WS02006253WS02006251    1.00   0.38  0.17  0.00  0.41  0.00  0.04  0.00  0.00  0.00
  WS02006252WS02006251    1.00   1.00  0.00  0.00  0.00  0.00  0.00  0.00  0.00  0.00
  WS02006251WS02006249    1.00   0.00  0.00  0.00  1.00  0.00  0.00  0.00  0.92  0.00
  WS02006249WS02006248    1.00   0.00  0.25  0.00  0.00  0.00  0.75  0.00  0.00  0.00
  WS02006248WS02006247    1.00   0.29  0.00  0.00  0.68  0.00  0.00  0.03  0.43  0.00
  WS02006247WS02006245    1.00   0.29  0.01  0.00  0.61  0.00  0.00  0.09  0.00  0.00
  WS02006245WS02006243    1.00   0.16  0.07  0.00  0.26  0.00  0.00  0.51  0.03  0.00
  WS02006243WS02006242    1.00   0.07  0.06  0.00  0.87  0.00  0.00  0.00  0.83  0.00
  WS02006242WS02006240    1.00   0.02  0.00  0.00  0.98  0.00  0.00  0.00  0.00  0.00
  WS02006240WS02006239    1.00   0.01  0.00  0.00  0.52  0.00  0.00  0.47  0.06  0.00
  WS02006239WS02006238    1.00   0.01  0.00  0.00  0.99  0.00  0.00  0.00  0.00  0.00
  WS02006238WS02006235    1.00   0.00  0.00  0.00  0.99  0.00  0.00  0.00  0.00  0.00
  WS02006235WS02006234    1.00   0.00  0.00  0.00  0.49  0.00  0.51  0.00  0.00  0.00
  WS02006234WS02006232    1.00   0.01  0.00  0.00  0.98  0.01  0.00  0.00  0.01  0.00
  WS02006232WS02006231    1.00   0.01  0.01  0.00  0.93  0.00  0.06  0.00  0.00  0.00
  WS02006231WS02006230    1.00   0.02  0.00  0.00  0.00  0.00  0.98  0.00  0.00  0.00
  WS02006230WS02006229    1.00   0.00  0.00  0.00  0.82  0.00  0.00  0.18  0.01  0.00
  WS02006228WS02006109    1.00   0.00  0.00  0.00  1.00  0.00  0.00  0.00  0.01  0.00
  WS02006116WS02004401    1.00   0.33  0.00  0.00  0.67  0.00  0.00  0.00  0.01  0.00
  WS02006115WS02006116    1.00   0.33  0.00  0.00  0.58  0.00  0.00  0.10  0.01  0.00
  WS02006113WS02006111    1.00   0.28  0.00  0.00  0.02  0.70  0.00  0.00  0.00  0.00
  WS02006112WS02006115    1.00   0.30  0.02  0.00  0.66  0.00  0.02  0.00  0.00  0.00
  WS02006111WS02006112    1.00   0.30  0.00  0.00  0.68  0.01  0.00  0.01  0.89  0.00
  WS02006110WS02006113    1.00   0.09  0.18  0.00  0.72  0.00  0.00  0.00  0.00  0.00
  WS02006109WS02006110    1.00   0.00  0.09  0.00  0.76  0.00  0.16  0.00  0.00  0.00
  WS02004411WS02004412    1.00   0.58  0.00  0.00  0.42  0.00  0.00  0.00  0.02  0.00
  WS02004401WS02004402    1.00   0.33  0.00  0.00  0.67  0.00  0.00  0.00  0.00  0.00
  WS02004413WS02003067    1.00   0.59  0.22  0.00  0.00  0.00  0.18  0.00  0.00  0.00
  WS02004412WS02004413    1.00   0.59  0.00  0.00  0.41  0.00  0.00  0.00  0.14  0.00
  WS02004410WS02004411    1.00   0.57  0.00  0.00  0.43  0.00  0.00  0.00  0.14  0.00
  WS02004409WS02004410    1.00   0.57  0.00  0.00  0.43  0.00  0.00  0.00  0.09  0.00
  WS02004407WS02004409    1.00   0.57  0.00  0.00  0.41  0.03  0.00  0.00  0.46  0.00
  WS02004406WS02004407    1.00   0.00  0.56  0.00  0.44  0.00  0.00  0.00  0.00  0.00
  WS02004405WS02004406    1.00   0.00  0.00  0.00  1.00  0.00  0.00  0.00  0.04  0.00
  WS02004404WS02004405    1.00   0.00  0.00  0.00  1.00  0.00  0.00  0.00  0.01  0.00
  WS02004403WS02004404    1.00   0.00  0.34  0.00  0.66  0.00  0.00  0.00  0.05  0.00
  WS02004402WS02004403    1.00   0.34  0.00  0.00  0.66  0.00  0.00  0.00  0.00  0.00
  WS02004139WS02001211    1.00   0.00  0.00  0.00  0.95  0.00  0.04  0.00  0.00  0.00
  WS02004138WS02004139    1.00   0.00  0.00  0.00  0.80  0.18  0.00  0.02  0.97  0.00
  WS02003067WS02003066    1.00   0.82  0.07  0.00  0.11  0.00  0.00  0.00  0.00  0.00
  WS02001213WS02003059    1.00   0.01  0.05  0.00  0.95  0.00  0.00  0.00  0.00  0.00
  WS02001212WS02001213    1.00   0.06  0.03  0.00  0.00  0.00  0.91  0.00  0.00  0.00
  WS02001211WS02001212    1.00   0.00  0.06  0.00  0.94  0.00  0.00  0.00  0.00  0.00
  WS02003072WS02003073    1.00   0.00  0.00  0.00  0.00  0.00  0.00  1.00  0.00  0.00
  WS02003069WS02003072    1.00   0.00  0.00  0.00  0.95  0.05  0.00  0.00  0.88  0.00
  WS02003060WS02003069    1.00   0.00  0.00  0.00  0.93  0.07  0.00  0.00  0.05  0.00
  WS02003059WS02003060    1.00   0.00  0.00  0.00  0.99  0.01  0.00  0.00  0.06  0.00
  HS02004901HS02004770    1.00   0.59  0.00  0.00  0.41  0.00  0.00  0.00  0.02  0.00
  HS02004876HS02004881    1.00   0.26  0.00  0.00  0.74  0.00  0.00  0.00  0.00  0.00
  HS02004870HS02004876    1.00   0.01  0.00  0.00  0.96  0.03  0.00  0.00  0.77  0.00
  HS02004842HS02004848    1.00   0.00  0.60  0.00  0.40  0.00  0.00  0.00  0.23  0.00
  HS02004837HS02004842    1.00   0.00  0.00  0.00  0.98  0.02  0.00  0.00  0.46  0.00
  HS02004830HS02004837    1.00   0.00  0.00  0.00  1.00  0.00  0.00  0.00  0.95  0.00
  HS02004824HS02004830    1.00   0.00  0.00  0.00  1.00  0.00  0.00  0.00  0.00  0.00
  HS02004817HS02004824    1.00   0.00  0.00  0.00  1.00  0.00  0.00  0.00  1.00  0.00
  HS02004770HS02004777    1.00   0.00  0.59  0.00  0.41  0.00  0.00  0.00  0.15  0.00
  HS02004799HS02004480    1.00   0.01  0.34  0.00  0.30  0.00  0.34  0.00  0.00  0.00
  HS02004792HS02004799    1.00   0.00  0.00  0.00  0.86  0.14  0.00  0.00  0.93  0.00
  HS02004788HS02004792    1.00   0.00  0.00  0.00  0.91  0.09  0.00  0.00  0.91  0.00
  HS02004785HS02004788    1.00   0.00  0.00  0.00  1.00  0.00  0.00  0.00  0.01  0.00
  HS02004777HS02004785    1.00   0.00  0.00  0.00  1.00  0.00  0.00  0.00  0.61  0.00
  HS02004480HS02004478    1.00   0.61  0.00  0.00  0.01  0.00  0.00  0.38  0.00  0.00
  HS02004479HS02004480    1.00   0.35  0.00  0.00  0.65  0.00  0.00  0.00  0.53  0.00
  HS02004862HS02004870    1.00   0.00  0.00  0.00  1.00  0.00  0.00  0.00  0.22  0.00
  HS02004848HS02004852    1.00   0.60  0.00  0.00  0.40  0.00  0.00  0.00  0.00  0.00
  HS02004856HS02004862    1.00   0.00  0.77  0.00  0.23  0.00  0.00  0.00  0.17  0.00
  HS02004852HS02004856    1.00   0.59  0.04  0.00  0.37  0.00  0.00  0.00  0.38  0.00
  HS02004802HS02004478    1.00   0.61  0.02  0.00  0.37  0.00  0.00  0.00  0.11  0.00
  HS02004478WS02006287    1.00   0.70  0.00  0.00  0.23  0.07  0.00  0.00  0.25  0.00
  HS02004817HS02004807    1.00   0.00  0.59  0.00  0.41  0.00  0.00  0.00  0.04  0.00
  HS02004807HS02004802    1.00   0.59  0.00  0.00  0.36  0.00  0.00  0.05  0.02  0.00
  YS02001759YS02001757    1.00   0.00  0.00  0.00  1.00  0.00  0.00  0.00  0.69  0.00
  YS02001762YS02001759    1.00   0.00  0.00  0.00  1.00  0.00  0.00  0.00  0.15  0.00
  YS02001765YS02001762    1.00   0.00  0.00  0.00  1.00  0.00  0.00  0.00  0.70  0.00
  YS02001770YS02001767    1.00   0.00  0.00  0.00  1.00  0.00  0.00  0.00  0.00  0.00
  YS02001774YS02001770    1.00   0.01  0.62  0.00  0.38  0.00  0.00  0.00  0.17  0.00
  YS02001779YS02001774    1.00   0.00  0.00  0.00  1.00  0.00  0.00  0.00  0.88  0.00
  YS02001649YS02001757    1.00   0.00  0.00  0.00  1.00  0.00  0.00  0.00  0.71  0.00
  YS02001767YS02001765    1.00   0.00  0.00  0.00  1.00  0.00  0.00  0.00  0.02  0.00
  YS02006561YS02001783    1.00   0.81  0.00  0.00  0.00  0.19  0.00  0.00  0.10  0.00
  YS02001783YS02001784    1.00   0.00  0.81  0.00  0.19  0.00  0.00  0.00  0.02  0.00
  YS02001784YS02001785    1.00   0.00  0.00  0.00  1.00  0.00  0.00  0.00  0.83  0.00
  YS02001788YS02001790    1.00   0.00  0.00  0.00  0.85  0.15  0.00  0.00  0.93  0.00
  YS02001790YS02001791    1.00   0.00  0.00  0.00  0.15  0.85  0.00  0.00  0.00  0.00
  YS02001791YS02001793    1.00   0.00  0.00  0.00  0.00  1.00  0.00  0.00  0.00  0.00
  YS02001910YS02001907    1.00   0.00  0.00  0.00  0.67  0.01  0.00  0.32  0.53  0.00
  YS02001786YS02001788    1.00   0.00  0.00  0.00  0.89  0.11  0.00  0.00  0.00  0.00
  YS02001915YS02001910    1.00   0.00  0.00  0.00  0.75  0.25  0.00  0.00  0.78  0.00
  YS02001918YS02001915    1.00   0.00  0.02  0.00  0.73  0.25  0.00  0.00  0.40  0.00
  YS02001923YS02001920    1.00   0.00  0.00  0.00  1.00  0.00  0.00  0.00  1.00  0.00
  YS02001926YS02001923    1.00   0.00  0.45  0.00  0.00  0.00  0.55  0.00  0.00  0.00
  YS02001929YS02001926    1.00   0.00  0.59  0.00  0.41  0.00  0.00  0.00  0.45  0.00
  YS02001920YS02001918    1.00   0.00  0.02  0.00  0.98  0.00  0.00  0.00  0.00  0.00
  YS02001629YS02163301    1.00   0.69  0.03  0.00  0.27  0.00  0.00  0.00  0.00  0.00
  YS02001619YS02001622    1.00   0.59  0.00  0.00  0.41  0.00  0.00  0.00  0.00  0.00
  YS02001622YS02001625    1.00   0.60  0.00  0.00  0.40  0.00  0.00  0.00  0.31  0.00
  YS02001625YS02001629    1.00   0.60  0.23  0.00  0.00  0.00  0.17  0.00  0.00  0.00
  YS02163301YS02001633    1.00   0.00  0.69  0.00  0.31  0.00  0.00  0.00  0.00  0.00
  YS02163601YS02164001    1.00   0.00  0.47  0.00  0.53  0.00  0.00  0.00  0.00  0.00
  YS02164001YS02001641    1.00   0.04  0.43  0.00  0.53  0.00  0.00  0.00  0.25  0.00
  YS02001641YS02001644    1.00   0.00  0.02  0.00  0.98  0.00  0.00  0.00  0.00  0.00
  YS02001647YS02001649    1.00   0.00  0.78  0.00  0.22  0.00  0.00  0.00  0.03  0.00
  YS02006553YS02006556    1.00   0.12  0.00  0.00  0.88  0.00  0.00  0.00  0.12  0.00
  YS02006556YS02006558    1.00   0.00  0.01  0.00  0.99  0.00  0.00  0.00  0.00  0.00
  YSB6556YSB1171          1.00   0.36  0.22  0.00  0.42  0.00  0.00  0.00  0.00  0.00
  YS02001907YS02006553    1.00   0.01  0.30  0.00  0.69  0.00  0.00  0.00  0.01  0.00
  YS02006558YS02006561    1.00   0.81  0.00  0.00  0.01  0.19  0.00  0.00  0.06  0.00
  YS02001633YS02163601    1.00   0.00  0.03  0.00  0.97  0.00  0.00  0.00  0.68  0.00
  YS02001644YS02001647    1.00   0.00  0.78  0.00  0.22  0.00  0.00  0.00  0.00  0.00
  YS02001745YS02001748    1.00   0.00  0.00  0.00  0.00  0.00  0.00  1.00  0.00  0.00
  YS02001748YS02001751    1.00   0.00  0.00  0.00  0.65  0.35  0.00  0.00  0.55  0.00
  YS02001751YS02001754    1.00   0.00  0.00  0.00  0.11  0.02  0.00  0.87  0.07  0.00
  YS02001754YS02001757    1.00   0.00  0.00  0.00  0.98  0.02  0.00  0.00  0.86  0.00
  YS02001882YS02001884    1.00   0.67  0.03  0.00  0.30  0.00  0.00  0.00  0.00  0.00
  YS02001884YS02001887    1.00   0.41  0.14  0.00  0.45  0.00  0.00  0.00  0.00  0.00
  YS02001890YS02001895    1.00   0.01  0.71  0.00  0.28  0.00  0.00  0.00  0.00  0.00
  YS02001895YS02001898    1.00   0.72  0.01  0.00  0.16  0.00  0.11  0.00  0.00  0.00
  YS02001898YS02001901    1.00   0.73  0.00  0.00  0.27  0.00  0.00  0.00  0.10  0.00
  YS02001901YS02001904    1.00   0.73  0.00  0.00  0.27  0.00  0.00  0.00  0.00  0.00
  YS02001904YS02001907    1.00   0.01  0.72  0.00  0.28  0.00  0.00  0.00  0.00  0.00
  YS02001887YS02001890    1.00   0.00  0.01  0.00  0.66  0.00  0.33  0.00  0.00  0.00
  YS02001652YS02001649    1.00   0.00  0.00  0.00  0.97  0.03  0.00  0.00  0.77  0.00
  YS02001655YS02001652    1.00   0.00  0.00  0.00  0.13  0.02  0.00  0.86  0.08  0.00
  YS02001658YS02001655    1.00   0.00  0.64  0.00  0.01  0.35  0.00  0.00  0.33  0.00
  YS02001661YS02001658    1.00   0.64  0.00  0.00  0.00  0.36  0.00  0.00  0.07  0.00
  YS02001664YS02001661    1.00   0.59  0.00  0.00  0.41  0.00  0.00  0.00  0.43  0.00
  YSB1154YSB6556          1.00   0.58  0.00  0.00  0.42  0.00  0.00  0.00  0.08  0.00
  YSB1174YSB1171          1.00   0.39  0.12  0.00  0.50  0.00  0.00  0.00  0.00  0.00
  YSB1171HS02004479       1.00   0.36  0.00  0.00  0.60  0.01  0.00  0.03  0.47  0.00
  HS02004881HS02006253    1.00   0.40  0.00  0.00  0.00  0.00  0.00  0.60  0.00  0.00
  YS02001793JiankangQianchi    1.00   0.00  0.01  0.00  0.29  0.70  0.00  0.00  0.08  0.00
  YS02001757CaochengTiaoxuchi    1.00   0.00  1.00  0.00  0.00  0.00  0.00  0.00  0.00  0.00
  WSF200WS02003060        1.00   0.00  0.90  0.00  0.10  0.00  0.00  0.00  0.05  0.00
  1                       1.00   0.00  0.00  0.00  0.00  1.00  0.00  0.00  0.00  0.00
  2                       1.00   1.00  0.00  0.00  0.00  0.00  0.00  0.00  0.00  0.00
  3                       1.00   0.65  0.00  0.00  0.00  0.35  0.00  0.00  0.88  0.00
  4                       1.00   1.00  0.00  0.00  0.00  0.00  0.00  0.00  0.00  0.00
  
  
  *************************
  Conduit Surcharge Summary
  *************************
  
  ----------------------------------------------------------------------------
                                                           Hours        Hours 
                         --------- Hours Full --------   Above Full   Capacity
  Conduit                Both Ends  Upstream  Dnstream   Normal Flow   Limited
  ----------------------------------------------------------------------------
  WS02006256WS02006235        0.13      0.13      1.83      0.21         0.01
  WS02006235WS02006234        0.01      0.01      0.01      0.16         0.01
  WS02006231WS02006230        0.01      0.01      0.01      0.14         0.01
  WS02006230WS02006229        0.01      0.01      0.01      0.24         0.01
  WS02004404WS02004405        0.01      0.01      0.01      0.02         0.01
  YS02001793JiankangQianchi        0.01      0.01      0.12      0.01         0.01
  
  
  ***************
  Pumping Summary
  ***************
  
  ---------------------------------------------------------------------------------------------------------
                                                  Min       Avg       Max     Total     Power    % Time Off
                        Percent   Number of      Flow      Flow      Flow    Volume     Usage    Pump Curve
  Pump                 Utilized   Start-Ups       LPS       LPS       LPS  10^6 ltr     Kw-hr    Low   High
  ---------------------------------------------------------------------------------------------------------
  CC-Pump-1                0.00           0      0.00      0.00      0.00     0.000      0.00    0.0    0.0
  CC-Pump-2                0.00           0      0.00      0.00      0.00     0.000      0.00    0.0    0.0
  JK-Pump-1               99.99           1      0.00     67.39    298.97     0.123      2.04    0.0    0.0
  JK-Pump-2               99.99           1      0.00     67.39    298.97     0.123      2.04    0.0    0.0
  XR-Pump-1                0.00           0      0.00      0.00      0.00     0.000      0.00    0.0    0.0
  XR-Pump-2               99.99           1      0.00     84.95     95.00     0.604     10.05    0.0    0.0
  XR-Pump-3               99.99           1      0.00     84.95     95.00     0.604     10.05    0.0    0.0
  XR-Pump-4               99.99           1      0.00     84.95     95.00     0.604     10.05    0.0    0.0
  

  Analysis begun on:  Thu Dec 23 14:17:43 2021
  Analysis ended on:  Thu Dec 23 14:17:44 2021
  Total elapsed time: 00:00:01