
  EPA STORM WATER MANAGEMENT MODEL - VERSION 5.1 (Build 5.3.0.dev0)
  --------------------------------------------------------------

  WARNING 04: minimum elevation drop used for Conduit WS02004404WS02004405
  WARNING 03: negative offset ignored for Link YS02001904YS02001907
  
  *********************************************************
  NOTE: The summary statistics displayed in this report are
  based on results found at every computational time step,  
  not just on results from each reporting time step.
  *********************************************************
  
  ****************
  Analysis Options
  ****************
  Flow Units ............... LPS
  Process Models:
    Rainfall/Runoff ........ YES
    RDII ................... NO
    Snowmelt ............... NO
    Groundwater ............ NO
    Flow Routing ........... YES
    Ponding Allowed ........ NO
    Water Quality .......... NO
  Infiltration Method ...... HORTON
  Flow Routing Method ...... DYNWAVE
  Surcharge Method ......... EXTRAN
  Starting Date ............ 08/28/2015 08:00:00
  Ending Date .............. 08/28/2015 15:50:00
  Antecedent Dry Days ...... 8.0
  Report Time Step ......... 00:01:00
  Wet Time Step ............ 00:01:00
  Dry Time Step ............ 00:01:00
  Routing Time Step ........ 5.00 sec
  Variable Time Step ....... YES
  Maximum Trials ........... 8
  Number of Threads ........ 4
  Head Tolerance ........... 0.001500 m
  
  
  **************************        Volume         Depth
  Runoff Quantity Continuity     hectare-m            mm
  **************************     ---------       -------
  Total Precipitation ......         7.641        16.729
  Evaporation Loss .........         0.000         0.000
  Infiltration Loss ........         1.880         4.117
  Surface Runoff ...........         4.668        10.221
  Final Storage ............         1.093         2.393
  Continuity Error (%) .....        -0.013
  
  
  **************************        Volume        Volume
  Flow Routing Continuity        hectare-m      10^6 ltr
  **************************     ---------     ---------
  Dry Weather Inflow .......         0.616         6.165
  Wet Weather Inflow .......         4.667        46.671
  Groundwater Inflow .......         0.000         0.000
  RDII Inflow ..............         0.000         0.000
  External Inflow ..........         0.102         1.024
  External Outflow .........         2.002        20.016
  Flooding Loss ............         2.891        28.915
  Evaporation Loss .........         0.000         0.000
  Exfiltration Loss ........         0.000         0.000
  Initial Stored Volume ....         0.076         0.761
  Final Stored Volume ......         0.646         6.458
  Continuity Error (%) .....        -1.408
  
  
  *************************
  Highest Continuity Errors
  *************************
  Node HS02004842 (12.71%)
  Node YS02001884 (11.44%)
  Node JK-storage (-6.66%)
  Node HS02004817 (2.32%)
  Node YSB1171 (2.18%)
  
  
  ***************************
  Time-Step Critical Elements
  ***************************
  Link 3 (51.10%)
  Link WS02006252WS02006251 (40.26%)
  Link WS02006238WS02006235 (3.12%)
  
  
  ********************************
  Highest Flow Instability Indexes
  ********************************
  Link YS02163301YS02001633 (39)
  Link YS02163601YS02164001 (39)
  Link YS02001629YS02163301 (39)
  Link YS02001619YS02001622 (39)
  Link WS02006113WS02006111 (38)
  
  
  *************************
  Routing Time Step Summary
  *************************
  Minimum Time Step           :     0.45 sec
  Average Time Step           :     0.81 sec
  Maximum Time Step           :     5.00 sec
  Percent in Steady State     :    -0.00
  Average Iterations per Step :     4.44
  Percent Not Converging      :    19.00
  
  
  ***************************
  Subcatchment Runoff Summary
  ***************************
  
  ------------------------------------------------------------------------------------------------------------------------------
                            Total      Total      Total      Total     Imperv       Perv      Total       Total     Peak  Runoff
                           Precip      Runon       Evap      Infil     Runoff     Runoff     Runoff      Runoff   Runoff   Coeff
  Subcatchment                 mm         mm         mm         mm         mm         mm         mm    10^6 ltr      LPS
  ------------------------------------------------------------------------------------------------------------------------------
  sub0                      16.73       0.00       0.00       0.97      14.29       0.20      14.50        0.01     3.66   0.867
  sub1                      16.73       0.00       0.00       1.58      13.63       0.26      13.89        0.09    24.51   0.830
  sub2                      16.73       0.00       0.00       5.80       9.63       0.39      10.02        0.09    22.91   0.599
  sub3                      16.73       0.00       0.00       5.88       9.59       0.31       9.90        0.22    50.49   0.592
  sub4                      16.73       0.00       0.00       1.65      13.47       0.19      13.66        0.28    60.01   0.817
  sub5                      16.73       0.00       0.00       0.99      14.24       0.18      14.42        0.16    43.61   0.862
  sub7                      16.73       0.00       0.00       1.26      13.97       0.24      14.21        0.05    13.82   0.849
  sub8                      16.73       0.00       0.00       1.27      13.96       0.23      14.19        0.09    25.44   0.848
  sub9                      16.73       0.00       0.00       1.27      13.96       0.23      14.19        0.07    19.02   0.848
  sub10                     16.73       0.00       0.00       1.13      14.10       0.21      14.30        0.16    42.73   0.855
  sub11                     16.73       0.00       0.00       1.12      14.11       0.21      14.33        0.17    47.25   0.857
  sub12                     16.73       0.00       0.00       1.83      13.37       0.35      13.71        0.12    35.87   0.820
  sub14                     16.73       0.00       0.00       1.27      13.95       0.23      14.19        0.14    37.43   0.848
  sub15                     16.73       0.00       0.00       4.53      10.73       0.49      11.22        0.19    51.47   0.671
  sub16                     16.73       0.00       0.00       4.88      10.29       0.64      10.93        0.11    32.57   0.653
  sub17                     16.73       0.00       0.00       4.74      10.44       0.61      11.05        0.09    26.81   0.661
  sub22                     16.73       0.00       0.00       6.60       8.75       0.59       9.34        0.59   160.16   0.558
  sub23                     16.73       0.00       0.00       5.59       9.67       0.60      10.27        0.49   134.74   0.614
  sub60                     16.73       0.00       0.00       1.94      11.65       0.06      11.71        3.55   386.89   0.700
  sub61                     16.73       0.00       0.00       2.75      11.65       0.09      11.73        3.62   476.87   0.701
  sub62                     16.73       0.00       0.00       1.26      12.72       0.07      12.79        3.93   491.27   0.765
  sub63                     16.73       0.00       0.00       4.75      10.14       0.10      10.23        3.10   437.54   0.612
  sub64                     16.73       0.00       0.00       2.45      11.19       0.06      11.26        3.42   367.58   0.673
  sub65                     16.73       0.00       0.00       2.11      11.40       0.06      11.46        3.52   372.98   0.685
  sub66                     16.73       0.00       0.00       4.79       9.55       0.06       9.61        2.95   336.52   0.575
  sub67                     16.73       0.00       0.00       1.24      13.25       0.09      13.35        4.12   605.48   0.798
  sub68                     16.73       0.00       0.00       2.25      12.20       0.10      12.30        3.78   521.64   0.735
  sub69                     16.73       0.00       0.00       2.37      12.50       0.14      12.64        2.95   482.20   0.755
  sub70                     16.73      12.90       0.00       8.98      17.16       1.09      18.25        4.18   460.88   0.616
  sub71                     16.73       0.00       0.00       1.27      12.46       0.07      12.53        2.96   345.19   0.749
  sub72                     16.73       0.00       0.00       1.14      10.39       0.03      10.43        2.12   185.81   0.623
  sub73                     16.73      17.77       0.00       9.78      19.72       1.38      21.10        4.96   482.28   0.612
  sub74                     16.73       0.00       0.00      12.48       3.71       0.07       3.78        1.51   261.10   0.226
  
  
  ******************
  Node Depth Summary
  ******************
  
  ---------------------------------------------------------------------------------
                                 Average  Maximum  Maximum  Time of Max    Reported
                                   Depth    Depth      HGL   Occurrence   Max Depth
  Node                 Type       Meters   Meters   Meters  days hr:min      Meters
  ---------------------------------------------------------------------------------
  WS02001211           JUNCTION     0.65     0.76     5.60     0  05:10        0.76
  WS02001212           JUNCTION     0.38     0.49     5.55     0  01:53        0.49
  WS02001213           JUNCTION     0.62     0.76     5.52     0  01:53        0.76
  WS02003069           JUNCTION     0.45     0.63     5.22     0  01:55        0.63
  WS02003072           JUNCTION     0.51     0.69     5.06     0  01:56        0.69
  WS02003073           JUNCTION     0.31     0.43     4.49     0  01:56        0.43
  WS02003060           JUNCTION     0.40     0.56     5.49     0  01:55        0.56
  WS02003066           JUNCTION     0.24     0.36     5.91     0  01:57        0.36
  WS02003059           JUNCTION     0.68     0.82     5.51     0  01:54        0.82
  WS02003067           JUNCTION     0.59     0.78     6.10     0  01:57        0.78
  WS02004401           JUNCTION     0.72     1.10     7.10     0  01:54        1.10
  WS02004402           JUNCTION     0.75     1.10     7.06     0  01:54        1.10
  WS02004403           JUNCTION     0.76     1.09     7.02     0  01:54        1.09
  WS02004404           JUNCTION     0.84     1.14     6.99     0  01:54        1.14
  WS02004406           JUNCTION     0.84     1.10     6.93     0  01:55        1.10
  WS02004409           JUNCTION     0.53     0.84     6.61     0  01:57        0.84
  WS02004410           JUNCTION     0.55     0.84     6.56     0  01:57        0.84
  WS02004411           JUNCTION     0.56     0.84     6.52     0  01:57        0.84
  WS02004412           JUNCTION     0.57     0.83     6.47     0  01:57        0.83
  WS02004413           JUNCTION     0.72     0.97     6.44     0  01:58        0.97
  WS02004405           JUNCTION     0.83     1.13     6.98     0  01:54        1.13
  WS02006109           JUNCTION     0.81     1.24     7.85     0  01:55        1.23
  WS02006110           JUNCTION     0.79     1.09     7.68     0  01:55        1.09
  WS02006111           JUNCTION     0.25     0.58     7.28     0  01:55        0.58
  WS02006112           JUNCTION     0.90     1.37     7.25     0  01:56        1.36
  WS02006113           JUNCTION     0.37     0.59     7.49     0  01:55        0.59
  WS02006115           JUNCTION     0.62     1.05     7.18     0  01:54        1.04
  WS02006116           JUNCTION     0.69     1.10     7.14     0  01:54        1.10
  WS02006230           JUNCTION     0.79     1.34     8.08     0  01:55        1.34
  WS02006231           JUNCTION     0.53     0.97     8.10     0  01:55        0.97
  WS02006232           JUNCTION     0.67     1.06     8.10     0  01:55        1.06
  WS02006234           JUNCTION     0.58     0.94     8.10     0  01:57        0.94
  WS02006235           JUNCTION     0.61     0.95     8.11     0  01:55        0.94
  WS02006238           JUNCTION     0.63     0.97     8.11     0  01:56        0.96
  WS02006240           JUNCTION     0.53     0.82     8.11     0  01:56        0.82
  WS02006242           JUNCTION     0.58     0.85     8.12     0  01:56        0.85
  WS02006243           JUNCTION     0.45     0.72     8.14     0  02:18        0.72
  WS02006245           JUNCTION     0.43     0.68     8.16     0  02:11        0.68
  WS02006247           JUNCTION     0.45     0.67     8.17     0  02:11        0.67
  WS02006248           JUNCTION     0.39     0.60     8.19     0  02:11        0.60
  WS02006249           JUNCTION     0.42     0.60     8.20     0  02:11        0.60
  WS02006239           JUNCTION     0.59     0.90     8.11     0  01:56        0.90
  WS02006251           JUNCTION     0.40     0.62     8.29     0  06:36        0.62
  WS02006252           JUNCTION     0.33     0.59     8.83     0  05:18        0.59
  WS02006253           JUNCTION     0.43     0.64     8.29     0  06:37        0.64
  WS02006256           JUNCTION     1.07     2.35     9.28     0  00:00        1.21
  WS02004138           JUNCTION     0.14     0.19     7.44     0  05:10        0.19
  WS02004407           JUNCTION     0.24     0.36     6.68     0  01:56        0.36
  WS02006228           JUNCTION     0.82     1.35     8.00     0  01:55        1.34
  WS02006229           JUNCTION     0.80     1.38     8.07     0  01:55        1.38
  WS02006280           JUNCTION     0.08     0.25     8.52     0  01:55        0.25
  WS02006284           JUNCTION     0.39     0.64     9.04     0  01:55        0.64
  WS02006287           JUNCTION     0.12     0.38     9.33     0  01:54        0.38
  WSF200               JUNCTION     0.24     0.39     5.62     0  01:55        0.39
  HS02004901           JUNCTION     0.14     0.36    10.18     0  01:52        0.36
  HS02004881           JUNCTION     0.01     0.05     9.08     0  01:54        0.05
  HS02004876           JUNCTION     0.05     0.16     9.19     0  01:55        0.16
  HS02004870           JUNCTION     0.02     0.09     9.38     0  01:55        0.09
  HS02004862           JUNCTION     0.03     0.11     9.49     0  01:55        0.11
  HS02004856           JUNCTION     0.08     0.15     9.58     0  01:55        0.15
  HS02004852           JUNCTION     0.02     0.07     9.59     0  01:55        0.07
  HS02004848           JUNCTION     0.01     0.07     9.67     0  01:55        0.07
  HS02004842           JUNCTION     0.34     0.40     9.67     0  01:55        0.40
  HS02004837           JUNCTION     0.03     0.09     9.67     0  01:55        0.09
  HS02004830           JUNCTION     0.05     0.10     9.57     0  01:56        0.10
  HS02004824           JUNCTION     0.03     0.12     9.53     0  01:55        0.12
  HS02004817           JUNCTION     0.46     0.69     9.53     0  01:55        0.69
  HS02004807           JUNCTION     0.14     0.36     9.53     0  01:55        0.36
  HS02004802           JUNCTION     0.18     0.39     9.52     0  01:55        0.39
  HS02004799           JUNCTION     0.14     0.45     9.66     0  01:53        0.45
  HS02004792           JUNCTION     0.05     0.20     9.73     0  01:52        0.20
  HS02004788           JUNCTION     0.04     0.15    10.05     0  01:53        0.15
  HS02004785           JUNCTION     0.06     0.23    10.14     0  01:52        0.23
  HS02004777           JUNCTION     0.16     0.37    10.17     0  01:52        0.37
  HS02004770           JUNCTION     0.13     0.35    10.18     0  01:52        0.35
  HS02004480           JUNCTION     0.10     0.37     9.61     0  01:53        0.37
  HS02004479           JUNCTION     0.14     0.41     9.61     0  01:53        0.41
  HS02004478           JUNCTION     0.08     0.27     9.50     0  01:54        0.27
  YS02001745           JUNCTION     0.77     0.94     8.46     0  02:47        0.94
  YS02001748           JUNCTION     1.17     1.37     8.45     0  02:47        1.37
  YS02001751           JUNCTION     1.36     1.80     8.68     0  01:48        1.57
  YS02001754           JUNCTION     1.61     1.84     8.45     0  01:48        1.83
  YS02001762           JUNCTION     1.81     2.04     8.44     0  02:21        2.04
  YS02001765           JUNCTION     1.77     1.99     8.44     0  02:36        1.98
  YS02001767           JUNCTION     1.73     1.94     8.43     0  02:28        1.94
  YS02001770           JUNCTION     1.73     1.93     8.42     0  02:40        1.92
  YS02001774           JUNCTION     1.79     1.99     8.41     0  02:36        1.97
  YS02001779           JUNCTION     1.54     1.68     8.37     0  01:47        1.68
  YS02001882           JUNCTION     0.68     1.65     8.37     0  01:58        1.62
  YS02001884           JUNCTION     0.77     1.74     8.36     0  01:58        1.73
  YS02001759           JUNCTION     1.85     2.08     8.45     0  02:37        2.07
  YS02001887           JUNCTION     0.85     1.81     8.35     0  01:58        1.81
  YS02001890           JUNCTION     0.88     1.81     8.32     0  01:58        1.81
  YS02001898           JUNCTION     0.65     1.58     8.31     0  01:58        1.56
  YS02001901           JUNCTION     0.76     1.68     8.29     0  01:58        1.67
  YS02001904           JUNCTION     0.74     1.64     8.27     0  01:58        1.63
  YS02001907           JUNCTION     1.07     1.96     8.25     0  01:58        1.96
  YS02001910           JUNCTION     0.86     1.80     8.31     0  01:59        1.78
  YS02001915           JUNCTION     0.66     1.63     8.35     0  01:59        1.62
  YS02001918           JUNCTION     0.40     1.35     8.42     0  01:59        1.30
  YS02001619           JUNCTION     1.32     1.61     8.54     0  01:47        1.47
  YS02001629           JUNCTION     1.67     1.85     8.40     0  01:47        1.85
  YS02001641           JUNCTION     1.77     1.93     8.37     0  02:14        1.93
  YS02001644           JUNCTION     1.77     1.92     8.35     0  01:51        1.92
  YS02001652           JUNCTION     1.63     2.16     8.76     0  02:21        1.97
  YS02001655           JUNCTION     1.39     2.14     8.99     0  02:10        1.83
  YS02001920           JUNCTION     0.50     1.44     8.45     0  01:59        1.39
  YS02001923           JUNCTION     0.33     1.22     8.48     0  01:59        1.16
  YS02001926           JUNCTION     0.36     1.22     8.67     0  01:59        0.97
  YS02001929           JUNCTION     0.22     0.82     8.52     0  01:59        0.71
  YS02001658           JUNCTION     1.11     2.16     9.30     0  02:10        1.62
  YS02001661           JUNCTION     0.88     2.24     9.64     0  02:10        1.41
  YS02001664           JUNCTION     0.39     0.57     8.49     0  03:38        0.56
  YS02001622           JUNCTION     1.34     1.62     8.52     0  01:47        1.50
  YS02001633           JUNCTION     1.77     1.97     8.42     0  01:50        1.94
  YS02001649           JUNCTION     1.82     2.05     8.44     0  02:04        2.05
  YS02001757           JUNCTION     1.94     2.18     8.44     0  02:36        2.17
  YS02001895           JUNCTION     0.64     1.57     8.32     0  01:58        1.56
  YS02001625           JUNCTION     1.63     1.78     8.38     0  01:46        1.78
  YS02163301           JUNCTION     1.71     1.90     8.42     0  01:50        1.88
  YS02163601           JUNCTION     1.82     2.00     8.40     0  01:50        1.99
  YS02164001           JUNCTION     1.75     1.93     8.39     0  01:50        1.91
  YS02001647           JUNCTION     1.61     1.81     8.42     0  02:09        1.79
  YSB1154              JUNCTION     0.28     0.56     9.62     0  01:53        0.56
  YSB6556              JUNCTION     0.17     0.44     9.61     0  01:53        0.44
  YSB1174              JUNCTION     0.23     0.50     9.61     0  01:53        0.50
  YSB1171              JUNCTION     0.43     0.71     9.61     0  01:53        0.71
  YS02006553           JUNCTION     1.07     2.17     8.45     0  01:58        1.97
  YS02006561           JUNCTION     0.41     1.95     8.61     0  01:58        1.08
  YS02006556           JUNCTION     1.04     2.39     8.70     0  01:58        1.92
  YS02006558           JUNCTION     1.08     2.50     8.77     0  01:58        1.97
  YS02001783           JUNCTION     0.66     2.40     8.54     0  01:58        1.47
  YS02001784           JUNCTION     0.67     2.15     8.22     0  01:58        1.41
  YS02001786           JUNCTION     0.60     2.23     8.26     0  01:58        1.26
  YS02001788           JUNCTION     0.52     2.28     8.26     0  01:58        1.13
  YS02001790           JUNCTION     0.64     1.96     7.60     0  01:57        1.30
  YS02001791           JUNCTION     0.62     2.35     7.82     0  01:57        1.27
  YS02001793           JUNCTION     0.84     2.02     6.85     0  01:57        1.80
  WS02004139           JUNCTION     0.59     0.71     5.62     0  05:10        0.71
  WSC                  OUTFALL      0.31     0.43     1.10     0  01:57        0.43
  3                    OUTFALL      0.11     0.23     6.23     0  00:00        0.21
  4                    OUTFALL      0.02     0.10     7.10     0  02:11        0.10
  5                    OUTFALL      0.00     0.00     5.00     0  00:00        0.00
  JK-storage           STORAGE      2.88     5.80     6.60     0  01:58        5.80
  CC-storage           STORAGE      1.17     1.43     8.43     0  02:45        1.43
  XR-storage           STORAGE      7.50     7.72     5.72     0  01:55        7.72
  
  
  *******************
  Node Inflow Summary
  *******************
  
  -------------------------------------------------------------------------------------------------
                                  Maximum  Maximum                  Lateral       Total        Flow
                                  Lateral    Total  Time of Max      Inflow      Inflow     Balance
                                   Inflow   Inflow   Occurrence      Volume      Volume       Error
  Node                 Type           LPS      LPS  days hr:min    10^6 ltr    10^6 ltr     Percent
  -------------------------------------------------------------------------------------------------
  WS02001211           JUNCTION      7.35   381.37     0  05:10       0.207        6.22       0.490
  WS02001212           JUNCTION      0.00   377.46     0  05:10           0        6.19       0.262
  WS02001213           JUNCTION      0.00   376.63     0  05:11           0        6.18       0.313
  WS02003069           JUNCTION      0.32  1081.81     0  01:55     0.00902        15.4       0.162
  WS02003072           JUNCTION      0.00  1081.84     0  01:56           0        15.4       0.201
  WS02003073           JUNCTION      1.82  1083.66     0  01:56      0.0514        15.4       0.214
  WS02003060           JUNCTION     16.53  1081.37     0  01:54       0.466        15.4       0.159
  WS02003066           JUNCTION      0.00   792.38     0  01:58           0        8.86       0.050
  WS02003059           JUNCTION      0.00   376.87     0  05:11           0        6.16       0.552
  WS02003067           JUNCTION      0.00   792.27     0  01:58           0        8.87       0.105
  WS02004401           JUNCTION      0.00   792.95     0  01:55           0        9.11       0.257
  WS02004402           JUNCTION      0.00   792.94     0  01:56           0        9.09       0.240
  WS02004403           JUNCTION      0.00   792.93     0  01:56           0        9.07       0.216
  WS02004404           JUNCTION      0.16   793.08     0  01:56     0.00457        9.05       0.160
  WS02004406           JUNCTION      0.00   793.11     0  01:55           0        9.02       0.390
  WS02004409           JUNCTION      0.00   793.09     0  01:56           0        8.98       0.192
  WS02004410           JUNCTION      0.00   792.64     0  01:56           0        8.96       0.213
  WS02004411           JUNCTION      0.00   792.34     0  01:57           0        8.94       0.215
  WS02004412           JUNCTION      0.00   792.28     0  01:57           0        8.92       0.230
  WS02004413           JUNCTION      0.00   792.26     0  01:58           0         8.9       0.342
  WS02004405           JUNCTION      0.04   793.11     0  01:56     0.00107        9.04       0.242
  WS02006109           JUNCTION      1.23   767.96     0  01:55      0.0347        9.16       0.253
  WS02006110           JUNCTION      0.00   767.96     0  01:55           0        9.13       0.238
  WS02006111           JUNCTION      0.00   767.81     0  01:55           0         9.1       0.057
  WS02006112           JUNCTION     26.81   793.00     0  01:55      0.0948        9.19       0.326
  WS02006113           JUNCTION      0.00   767.92     0  01:55           0        9.11       0.129
  WS02006115           JUNCTION      0.00   792.97     0  01:55           0        9.16       0.254
  WS02006116           JUNCTION      0.00   792.94     0  01:55           0        9.14       0.241
  WS02006230           JUNCTION     10.28   397.62     0  06:35        0.29        6.47       0.227
  WS02006231           JUNCTION      0.00   389.10     0  05:13           0        6.19       0.248
  WS02006232           JUNCTION      0.00   389.37     0  05:13           0        6.21       0.286
  WS02006234           JUNCTION      0.00   391.56     0  05:13           0        6.22       0.163
  WS02006235           JUNCTION      0.00   393.59     0  05:12           0        6.29       0.198
  WS02006238           JUNCTION      0.00   344.78     0  05:20           0        4.31       0.210
  WS02006240           JUNCTION      0.00   339.61     0  05:20           0        4.32       0.366
  WS02006242           JUNCTION      0.00   336.61     0  05:20           0        4.33       0.438
  WS02006243           JUNCTION      0.00   336.36     0  07:41           0        4.32      -0.148
  WS02006245           JUNCTION      0.00   343.90     0  07:41           0        4.33       0.383
  WS02006247           JUNCTION      0.00   349.89     0  07:41           0        4.34       0.243
  WS02006248           JUNCTION      0.00   355.29     0  07:41           0        4.35       0.156
  WS02006249           JUNCTION      0.00   401.84     0  05:19           0        4.79       0.339
  WS02006239           JUNCTION      0.00   344.21     0  05:20           0        4.31       0.341
  WS02006251           JUNCTION      0.08   402.04     0  05:18     0.00217        4.84       0.287
  WS02006252           JUNCTION      0.00   400.00     0  05:10           0        4.27       0.012
  WS02006253           JUNCTION      3.66   142.87     0  01:54      0.0117       0.574       1.434
  WS02006256           JUNCTION      0.00   600.00     0  00:00           0        6.21       0.040
  WS02004138           JUNCTION      0.00   379.99     0  04:40           0        6.04       0.061
  WS02004407           JUNCTION      0.00   793.15     0  01:56           0        8.98       0.092
  WS02006228           JUNCTION      0.00   766.68     0  01:55           0        9.14       0.174
  WS02006229           JUNCTION      0.00   766.65     0  01:54           0        9.15       0.150
  WS02006280           JUNCTION      0.00   656.04     0  01:55           0         2.7       0.003
  WS02006284           JUNCTION      0.10   655.96     0  01:55      0.0027         2.7       0.039
  WS02006287           JUNCTION      0.00   655.81     0  01:54           0         2.7       0.027
  WSF200               JUNCTION      0.00   792.52     0  01:58           0        8.86       0.048
  HS02004901           JUNCTION     32.57    32.57     0  01:50       0.114       0.115       1.560
  HS02004881           JUNCTION     13.82   139.59     0  01:54      0.0479       0.529       0.065
  HS02004876           JUNCTION     24.51   126.37     0  01:54      0.0923       0.482       0.114
  HS02004870           JUNCTION     25.44   102.13     0  01:54      0.0907        0.39       0.028
  HS02004862           JUNCTION     23.11    77.53     0  01:55       0.099       0.299       0.058
  HS02004856           JUNCTION     19.02    54.51     0  01:55      0.0682       0.202       0.719
  HS02004852           JUNCTION      0.00    36.10     0  01:55           0       0.134       0.042
  HS02004848           JUNCTION     50.49    50.49     0  01:57       0.223       0.223       0.021
  HS02004842           JUNCTION      0.00    15.55     0  02:06           0       0.102      14.561
  HS02004837           JUNCTION     49.08    62.50     0  01:55       0.337       0.426       0.191
  HS02004830           JUNCTION      0.15    62.61     0  01:55     0.00423       0.416       0.297
  HS02004824           JUNCTION     60.06   122.20     0  01:58       0.286       0.702       0.077
  HS02004817           JUNCTION      0.60   124.03     0  01:59      0.0169       0.718       2.378
  HS02004807           JUNCTION     47.25   168.28     0  01:57       0.166       0.868       0.499
  HS02004802           JUNCTION      0.00   169.25     0  01:58           0       0.865       0.463
  HS02004799           JUNCTION     37.43   414.53     0  01:52       0.135        1.57       0.166
  HS02004792           JUNCTION    160.44   377.30     0  01:52       0.598        1.44       0.028
  HS02004788           JUNCTION     53.14   218.54     0  01:52        0.24       0.839       0.046
  HS02004785           JUNCTION      0.15   165.59     0  01:52     0.00423       0.601       0.083
  HS02004777           JUNCTION      0.03   165.80     0  01:51    0.000846       0.601       0.872
  HS02004770           JUNCTION    134.74   166.64     0  01:51        0.49       0.602       0.516
  HS02004480           JUNCTION      0.00   492.23     0  01:53           0        1.85       0.064
  HS02004479           JUNCTION      0.00    78.00     0  01:53           0       0.292       0.252
  HS02004478           JUNCTION      0.00   655.76     0  01:54           0         2.7       0.013
  YS02001745           JUNCTION    386.89   386.89     0  02:16        3.55        3.55       0.308
  YS02001748           JUNCTION      0.04   395.26     0  02:16     0.00127        3.54       0.654
  YS02001751           JUNCTION      0.01   395.30     0  02:16     0.00031        3.52       0.681
  YS02001754           JUNCTION      0.26   395.51     0  02:16     0.00733         3.5       0.702
  YS02001762           JUNCTION      0.00   433.53     0  02:03           0         2.3       0.919
  YS02001765           JUNCTION      0.00   433.18     0  02:03           0         2.3       1.063
  YS02001767           JUNCTION      0.54   433.39     0  02:03      0.0151        2.32       1.554
  YS02001770           JUNCTION    491.42   670.32     0  02:49        3.94        4.71       0.668
  YS02001774           JUNCTION      0.00   670.35     0  02:49           0        3.15       0.791
  YS02001779           JUNCTION      0.01   670.36     0  02:49    0.000141        3.13       0.492
  YS02001882           JUNCTION      0.00    20.13     0  01:52           0      0.0197      13.176
  YS02001884           JUNCTION      0.00    47.01     0  01:52           0      0.0546      12.912
  YS02001759           JUNCTION    476.91   860.70     0  02:03        3.62        5.11       0.447
  YS02001887           JUNCTION    605.93   606.26     0  02:15        4.13        4.16       0.208
  YS02001890           JUNCTION      0.00   606.18     0  02:15           0        4.11       0.230
  YS02001898           JUNCTION      0.00   519.39     0  01:58           0           4       0.076
  YS02001901           JUNCTION      0.00   519.78     0  01:58           0           4       0.177
  YS02001904           JUNCTION      0.00   519.86     0  01:57           0        3.99       0.161
  YS02001907           JUNCTION      0.00  1116.73     0  02:00           0        9.13       0.267
  YS02001910           JUNCTION      0.00   600.87     0  02:00           0        5.15       0.226
  YS02001915           JUNCTION    345.21   600.66     0  02:00        2.96        5.19       0.122
  YS02001918           JUNCTION      0.00   317.96     0  02:00           0        2.25       0.064
  YS02001619           JUNCTION    336.52   336.52     0  02:16        2.95        2.95       0.414
  YS02001629           JUNCTION      0.00   236.22     0  01:47           0        1.45       2.000
  YS02001641           JUNCTION      0.00   423.63     0  01:51           0        4.86       0.430
  YS02001644           JUNCTION    367.62  1479.97     0  02:48        3.42        12.6       0.206
  YS02001652           JUNCTION      0.00   473.16     0  02:14           0        3.05       0.750
  YS02001655           JUNCTION      0.15   472.96     0  02:14     0.00434        3.07       0.824
  YS02001920           JUNCTION      2.87   318.24     0  02:00      0.0809        2.24       0.127
  YS02001923           JUNCTION      0.04   287.95     0  02:00     0.00106        2.14       0.046
  YS02001926           JUNCTION      0.05   216.01     0  01:59     0.00147        2.13       0.158
  YS02001929           JUNCTION    185.81   185.81     0  03:01        2.12        2.12       0.030
  YS02001658           JUNCTION      0.00   490.60     0  02:13           0        3.09       0.732
  YS02001661           JUNCTION      0.00   770.10     0  02:04           0        3.78      -0.042
  YS02001664           JUNCTION    437.54   437.54     0  02:16         3.1        3.79       0.164
  YS02001622           JUNCTION      0.00   336.71     0  02:16           0        2.94       1.084
  YS02001633           JUNCTION    373.18   424.21     0  01:51        3.53        4.93       0.650
  YS02001649           JUNCTION      0.00  1007.00     0  01:58           0        6.96       0.529
  YS02001757           JUNCTION      0.00  2128.06     0  02:02           0        10.3       0.893
  YS02001895           JUNCTION      0.00   519.26     0  01:58           0           4       0.132
  YS02001625           JUNCTION      0.00   336.60     0  02:16           0        2.91       1.362
  YS02163301           JUNCTION      0.00   229.92     0  01:48           0        1.44       1.672
  YS02163601           JUNCTION      0.11   424.26     0  01:51      0.0031        4.87       0.614
  YS02164001           JUNCTION      0.00   424.12     0  01:51           0        4.85       0.409
  YS02001647           JUNCTION      0.00   757.57     0  02:48           0        5.97       0.475
  YSB1154              JUNCTION     43.61    43.61     0  01:53       0.163       0.164       0.888
  YSB6556              JUNCTION      0.00    43.64     0  01:53           0       0.165       0.764
  YSB1174              JUNCTION     35.87    35.87     0  01:50        0.12        0.12       1.078
  YSB1171              JUNCTION      0.00    78.04     0  01:52           0       0.291       2.227
  YS02006553           JUNCTION      0.00   690.08     0  01:57           0        7.15       0.216
  YS02006561           JUNCTION      0.00  1119.33     0  01:57           0        10.9       0.006
  YS02006556           JUNCTION      0.00   690.01     0  01:57           0        7.16       0.157
  YS02006558           JUNCTION    522.52  1119.36     0  01:57        3.81        10.9       0.048
  YS02001783           JUNCTION      0.00  1096.72     0  01:57           0        10.9       0.023
  YS02001784           JUNCTION      1.06  1097.61     0  01:58      0.0299        10.9       0.035
  YS02001786           JUNCTION      0.06  1097.57     0  01:57     0.00159        10.9       0.034
  YS02001788           JUNCTION      0.07  1097.91     0  01:57       0.002        10.9       0.019
  YS02001790           JUNCTION      0.15  1084.12     0  01:57     0.00437        10.9       0.026
  YS02001791           JUNCTION      0.00  1131.17     0  01:56           0        10.9       0.008
  YS02001793           JUNCTION      0.00  1045.74     0  01:56           0        10.9       0.003
  WS02004139           JUNCTION      0.32   379.47     0  05:10     0.00905        6.05       0.524
  WSC                  OUTFALL       0.00  1084.04     0  01:57           0        15.4       0.000
  3                    OUTFALL       0.00   597.65     0  00:00           0        4.21       0.000
  4                    OUTFALL       0.00   100.63     0  02:11           0       0.422       0.000
  5                    OUTFALL       0.00     0.00     0  00:00           0           0       0.000 ltr
  JK-storage           STORAGE       0.00  1024.48     0  01:58           0        11.1      -6.242
  CC-storage           STORAGE       0.00  2128.12     0  02:02           0        7.91       0.802
  XR-storage           STORAGE     844.69   844.69     0  03:01        12.1        12.7      -0.001
  
  
  **********************
  Node Surcharge Summary
  **********************
  
  Surcharging occurs when water rises above the top of the highest conduit.
  ---------------------------------------------------------------------
                                               Max. Height   Min. Depth
                                   Hours       Above Crown    Below Rim
  Node                 Type      Surcharged         Meters       Meters
  ---------------------------------------------------------------------
  WS02004401           JUNCTION        0.56          0.096        1.564
  WS02004402           JUNCTION        0.60          0.100        1.640
  WS02004403           JUNCTION        0.61          0.091        1.939
  WS02004404           JUNCTION        0.83          0.144        2.636
  WS02004406           JUNCTION        0.74          0.097        2.353
  WS02004405           JUNCTION        0.79          0.126        2.674
  WS02006109           JUNCTION        2.70          0.416        1.404
  WS02006110           JUNCTION        1.15          0.183        1.667
  WS02006112           JUNCTION        1.32          0.369        1.311
  WS02006115           JUNCTION        0.24          0.035        2.215
  WS02006116           JUNCTION        0.30          0.044        2.246
  WS02006230           JUNCTION        0.81          0.256        1.314
  WS02006231           JUNCTION        0.85          0.264        1.266
  WS02006232           JUNCTION        2.70          0.361        1.119
  WS02006234           JUNCTION        0.99          0.222        1.018
  WS02006235           JUNCTION        1.83          0.238        1.052
  WS02006238           JUNCTION        2.22          0.249        1.181
  WS02006240           JUNCTION        0.78          0.110        1.280
  WS02006242           JUNCTION        1.64          0.122        0.698
  WS02006243           JUNCTION        0.26          0.010        0.760
  WS02006239           JUNCTION        0.90          0.159        1.131
  WS02006252           JUNCTION        1.75          0.193        0.907
  WS02006256           JUNCTION        0.01          1.050        0.000
  WS02006228           JUNCTION        2.59          0.521        1.679
  YS02001748           JUNCTION        5.99          0.294        0.896
  YS02001751           JUNCTION        6.02          0.804        0.396
  YS02001754           JUNCTION        6.05          0.792        0.358
  YS02001762           JUNCTION        6.09          1.041        0.109
  YS02001765           JUNCTION        6.08          0.991        0.109
  YS02001767           JUNCTION        6.07          0.943        0.087
  YS02001770           JUNCTION        6.07          0.896        0.024
  YS02001774           JUNCTION        6.08          0.985        0.065
  YS02001779           JUNCTION        6.04          0.680        0.000
  YS02001882           JUNCTION        1.76          0.652        0.178
  YS02001884           JUNCTION        1.79          0.680        0.190
  YS02001759           JUNCTION        6.09          1.081        0.129
  YS02001887           JUNCTION        1.87          0.760        0.190
  YS02001890           JUNCTION        1.90          0.760        0.000
  YS02001898           JUNCTION        1.72          0.549        0.191
  YS02001901           JUNCTION        1.84          0.685        0.185
  YS02001904           JUNCTION        1.82          0.643        0.207
  YS02001907           JUNCTION        2.25          0.950        0.000
  YS02001910           JUNCTION        1.94          0.804        0.296
  YS02001915           JUNCTION        1.75          0.629        0.371
  YS02001918           JUNCTION        1.51          0.353        0.457
  YS02001619           JUNCTION        6.02          0.610        0.000
  YS02001629           JUNCTION        6.02          0.470        0.000
  YS02001641           JUNCTION        6.08          0.935        0.165
  YS02001644           JUNCTION        6.08          0.920        0.000
  YS02001652           JUNCTION        6.05          1.130        0.000
  YS02001655           JUNCTION        6.02          1.140        0.060
  YS02001920           JUNCTION        1.55          0.443        0.697
  YS02001923           JUNCTION        0.01          0.013        0.807
  YS02001926           JUNCTION        0.01          0.223        0.677
  YS02001658           JUNCTION        5.99          1.157        0.143
  YS02001661           JUNCTION        0.24          1.169        0.221
  YS02001622           JUNCTION        6.02          0.620        0.000
  YS02001633           JUNCTION        6.08          0.946        0.114
  YS02001649           JUNCTION        6.08          1.050        0.000
  YS02001757           JUNCTION        6.12          1.182        0.028
  YS02001895           JUNCTION        1.74          0.574        0.176
  YS02001625           JUNCTION        6.05          0.780        0.000
  YS02163301           JUNCTION        6.07          0.899        0.131
  YS02163601           JUNCTION        6.09          1.004        0.076
  YS02164001           JUNCTION        6.08          0.929        0.171
  YS02001647           JUNCTION        6.05          0.806        0.094
  YS02006553           JUNCTION        2.30          1.169        0.021
  YS02006561           JUNCTION        1.60          1.150        0.000
  YS02006556           JUNCTION        2.11          1.350        0.000
  YS02006558           JUNCTION        2.09          1.400        0.000
  YS02001783           JUNCTION        2.14          1.600        0.000
  YS02001784           JUNCTION        2.18          1.351        0.139
  YS02001786           JUNCTION        2.07          1.430        0.000
  YS02001788           JUNCTION        2.03          1.480        0.000
  YS02001790           JUNCTION        2.83          1.157        0.000
  YS02001791           JUNCTION        2.86          1.548        0.372
  YS02001793           JUNCTION        2.92          1.019        1.581
  
  
  *********************
  Node Flooding Summary
  *********************
  
  Flooding refers to all water that overflows a node, whether it ponds or not.
  --------------------------------------------------------------------------
                                                             Total   Maximum
                                 Maximum   Time of Max       Flood    Ponded
                        Hours       Rate    Occurrence      Volume     Depth
  Node                 Flooded       LPS   days hr:min    10^6 ltr    Meters
  --------------------------------------------------------------------------
  WS02006256              0.01    406.11      0  00:00       0.001     0.000
  YS02001779              3.41    670.36      0  02:49       3.110     0.000
  YS02001890              0.55     90.32      0  02:15       0.101     0.000
  YS02001907              1.38    602.63      0  02:00       1.969     0.000
  YS02001619              0.01     65.02      0  01:48       0.000     0.000
  YS02001629              0.01    188.74      0  01:47       0.001     0.000
  YS02001644              4.75   1479.97      0  02:48      10.915     0.000
  YS02001652              0.01      4.76      0  02:21       0.000     0.000
  YS02001622              0.01    111.12      0  01:47       0.000     0.000
  YS02001649              0.06     39.99      0  02:10       0.003     0.000
  YS02001625              2.02    326.61      0  02:16       1.443     0.000
  YS02006561              0.01     93.16      0  01:58       0.000     0.000
  YS02006556              0.01     29.64      0  01:58       0.000     0.000
  YS02006558              0.01     25.16      0  01:58       0.000     0.000
  YS02001783              0.01     29.13      0  01:58       0.000     0.000
  YS02001786              0.01     19.28      0  01:58       0.000     0.000
  YS02001788              0.01    137.28      0  01:58       0.000     0.000
  YS02001790              0.01    213.93      0  01:57       0.000     0.000
  JK-storage              2.59    968.80      0  02:10       5.632     0.000
  XR-storage              5.52    710.44      0  02:10       5.740     0.000
  
  
  **********************
  Storage Volume Summary
  **********************
  
  --------------------------------------------------------------------------------------------------
                         Average     Avg  Evap Exfil       Maximum     Max    Time of Max    Maximum
                          Volume    Pcnt  Pcnt  Pcnt        Volume    Pcnt     Occurrence    Outflow
  Storage Unit           1000 m3    Full  Loss  Loss       1000 m3    Full    days hr:min        LPS
  --------------------------------------------------------------------------------------------------
  JK-storage               0.145      50     0     0         0.291     100       0  01:58     600.00
  CC-storage               3.252      21     0     0         3.992      25       0  02:45     400.00
  XR-storage               0.900      97     0     0         0.926     100       0  01:55     379.99
  
  
  ***********************
  Outfall Loading Summary
  ***********************
  
  -----------------------------------------------------------
                         Flow       Avg       Max       Total
                         Freq      Flow      Flow      Volume
  Outfall Node           Pcnt       LPS       LPS    10^6 ltr
  -----------------------------------------------------------
  WSC                   99.99    611.15   1084.04      15.388
  3                     89.81    221.55    597.65       4.206
  4                     37.99     45.77    100.63       0.422
  5                      0.00      0.00      0.00       0.000
  -----------------------------------------------------------
  System                56.95    878.47   1515.63      20.016
  
  
  ********************
  Link Flow Summary
  ********************
  
  -----------------------------------------------------------------------------
                                 Maximum  Time of Max   Maximum    Max/    Max/
                                  |Flow|   Occurrence   |Veloc|    Full    Full
  Link                 Type          LPS  days hr:min     m/sec    Flow   Depth
  -----------------------------------------------------------------------------
  WS02003066WSF200     CONDUIT    792.52     0  01:58      3.02    0.13    0.29
  WS02006287WS02006284 CONDUIT    655.86     0  01:55      2.36    0.30    0.38
  WS02006284WS02006280 CONDUIT    656.04     0  01:55      2.59    0.27    0.36
  WS02006280WS02006229 CONDUIT    656.05     0  01:55      4.21    0.14    0.25
  WS02006229WS02006228 CONDUIT    766.68     0  01:55      1.53    2.54    1.00
  WS02006256WS02006235 CONDUIT    177.52     0  00:01      2.73    1.88    1.00
  WS02006253WS02006251 CONDUIT    143.35     0  01:55      0.59    0.43    0.89
  WS02006252WS02006251 CONDUIT    400.57     0  07:40      3.19    1.47    1.00
  WS02006251WS02006249 CONDUIT    401.84     0  05:19      1.17    1.16    0.87
  WS02006249WS02006248 CONDUIT    355.29     0  07:41      1.16    1.95    0.84
  WS02006248WS02006247 CONDUIT    349.89     0  07:41      1.13    0.76    0.90
  WS02006247WS02006245 CONDUIT    343.90     0  07:41      1.09    2.73    0.96
  WS02006245WS02006243 CONDUIT    336.36     0  07:41      1.10    0.99    0.98
  WS02006243WS02006242 CONDUIT    336.61     0  05:20      0.96    0.72    1.00
  WS02006242WS02006240 CONDUIT    339.61     0  05:20      0.90    1.35    1.00
  WS02006240WS02006239 CONDUIT    344.21     0  05:20      0.94    1.08    1.00
  WS02006239WS02006238 CONDUIT    344.78     0  05:20      0.91    1.10    1.00
  WS02006238WS02006235 CONDUIT    344.73     0  05:20      1.32    0.77    1.00
  WS02006235WS02006234 CONDUIT    391.56     0  05:13      1.04    4.13    1.00
  WS02006234WS02006232 CONDUIT    389.37     0  05:13      1.17    0.79    1.00
  WS02006232WS02006231 CONDUIT    389.10     0  05:13      1.07    0.82    1.00
  WS02006231WS02006230 CONDUIT    387.34     0  06:35      1.36    5.88    1.00
  WS02006230WS02006229 CONDUIT    397.60     0  06:35      1.03    8.85    1.00
  WS02006228WS02006109 CONDUIT    766.73     0  01:55      1.53    3.35    1.00
  WS02006116WS02004401 CONDUIT    792.95     0  01:55      1.01    1.09    1.00
  WS02006115WS02006116 CONDUIT    792.94     0  01:55      1.01    1.02    1.00
  WS02006113WS02006111 CONDUIT    767.81     0  01:55      2.66    0.92    0.73
  WS02006112WS02006115 CONDUIT    792.97     0  01:55      1.01    0.47    1.00
  WS02006111WS02006112 CONDUIT    768.18     0  01:56      1.77    0.37    0.85
  WS02006110WS02006113 CONDUIT    767.92     0  01:55      1.66    0.70    0.87
  WS02006109WS02006110 CONDUIT    767.96     0  01:55      1.53    1.48    1.00
  WS02004411WS02004412 CONDUIT    792.28     0  01:57      1.13    1.13    0.83
  WS02004401WS02004402 CONDUIT    792.94     0  01:56      1.01    0.95    1.00
  WS02004413WS02003067 CONDUIT    792.27     0  01:58      1.38    0.34    0.68
  WS02004412WS02004413 CONDUIT    792.26     0  01:58      1.07    0.53    0.90
  WS02004410WS02004411 CONDUIT    792.34     0  01:57      1.12    1.08    0.84
  WS02004409WS02004410 CONDUIT    792.64     0  01:56      1.12    1.03    0.84
  WS02004407WS02004409 CONDUIT    793.09     0  01:56      1.64    0.28    0.60
  WS02004406WS02004407 CONDUIT    793.15     0  01:56      1.39    0.35    0.68
  WS02004405WS02004406 CONDUIT    793.11     0  01:55      1.01    1.56    1.00
  WS02004404WS02004405 CONDUIT    793.07     0  01:56      1.01    7.77    1.00
  WS02004403WS02004404 CONDUIT    792.91     0  01:56      1.01    0.57    1.00
  WS02004402WS02004403 CONDUIT    792.93     0  01:56      1.01    1.14    1.00
  WS02004139WS02001211 CONDUIT    374.02     0  05:10      0.69    0.47    0.57
  WS02004138WS02004139 CONDUIT    379.15     0  05:10      2.94    0.08    0.42
  WS02003067WS02003066 CONDUIT    792.38     0  01:58      1.50    0.25    0.47
  WS02001213WS02003059 CONDUIT    376.87     0  05:11      0.64    0.62    0.78
  WS02001212WS02001213 CONDUIT    376.63     0  05:11      1.20    0.58    0.46
  WS02001211WS02001212 CONDUIT    377.46     0  05:10      0.75    0.29    0.62
  WS02003072WS02003073 CONDUIT   1081.84     0  01:56      1.82    2.34    0.52
  WS02003069WS02003072 CONDUIT   1081.84     0  01:56      1.70    0.52    0.55
  WS02003060WS02003069 CONDUIT   1081.49     0  01:55      1.93    0.42    0.50
  WS02003059WS02003060 CONDUIT    377.59     0  05:12      0.82    0.25    0.69
  HS02004901HS02004770 CONDUIT     31.96     0  01:52      0.09    0.12    0.51
  HS02004876HS02004881 CONDUIT    126.38     0  01:55      1.20    1.34    0.15
  HS02004870HS02004876 CONDUIT    102.10     0  01:55      0.82    0.07    0.18
  HS02004842HS02004848 CONDUIT     15.55     0  02:06      0.07    0.01    0.33
  HS02004837HS02004842 CONDUIT     15.96     0  02:07      0.41    0.01    0.35
  HS02004830HS02004837 CONDUIT     62.46     0  01:55      0.66    0.06    0.14
  HS02004824HS02004830 CONDUIT     62.57     0  01:56      0.62    0.08    0.16
  HS02004817HS02004824 CONDUIT    123.43     0  01:59      0.31    0.06    0.58
  HS02004770HS02004777 CONDUIT    165.77     0  01:51      0.46    0.30    0.52
  HS02004799HS02004480 CONDUIT    414.30     0  01:53      1.02    0.52    0.58
  HS02004792HS02004799 CONDUIT    377.21     0  01:52      1.15    0.23    0.47
  HS02004788HS02004792 CONDUIT    218.44     0  01:53      1.24    0.14    0.25
  HS02004785HS02004788 CONDUIT    165.54     0  01:53      0.86    1.25    0.27
  HS02004777HS02004785 CONDUIT    165.44     0  01:52      0.54    0.20    0.44
  HS02004480HS02004478 CONDUIT    492.14     0  01:53      1.52    2.07    0.46
  HS02004479HS02004480 CONDUIT     78.31     0  01:54      0.27    0.08    0.55
  HS02004862HS02004870 CONDUIT     77.52     0  01:55      0.79    0.08    0.14
  HS02004848HS02004852 CONDUIT     36.10     0  01:55      0.52    0.04    0.10
  HS02004856HS02004862 CONDUIT     54.46     0  01:55      0.59    0.05    0.13
  HS02004852HS02004856 CONDUIT     36.15     0  01:56      0.33    0.04    0.16
  HS02004802HS02004478 CONDUIT    170.22     0  01:58      0.53    0.15    0.47
  HS02004478WS02006287 CONDUIT    655.81     0  01:54      2.08    0.18    0.35
  HS02004817HS02004807 CONDUIT    125.36     0  01:59      0.24    0.07    0.75
  HS02004807HS02004802 CONDUIT    169.25     0  01:58      0.47    0.32    0.53
  YS02001759YS02001757 CONDUIT    860.93     0  02:03      1.10    0.61    1.00
  YS02001762YS02001759 CONDUIT    433.47     0  02:03      0.55    0.50    1.00
  YS02001765YS02001762 CONDUIT    433.53     0  02:03      0.55    0.41    1.00
  YS02001770YS02001767 CONDUIT    432.85     0  02:03      0.55    1.71    1.00
  YS02001774YS02001770 CONDUIT    670.35     0  02:49      0.85    0.43    1.00
  YS02001779YS02001774 CONDUIT    670.35     0  02:49      0.85    0.34    1.00
  YS02001649YS02001757 CONDUIT   1006.83     0  01:58      1.28    0.61    1.00
  YS02001767YS02001765 CONDUIT    433.18     0  02:03      0.55    0.54    1.00
  YS02006561YS02001783 CONDUIT   1096.72     0  01:57      2.26    0.57    1.00
  YS02001783YS02001784 CONDUIT   1096.55     0  01:58      2.18    1.51    1.00
  YS02001784YS02001785 CONDUIT   1097.51     0  01:57      2.18    2.55    1.00
  YS02001788YS02001790 CONDUIT   1083.96     0  01:57      2.64    0.80    1.00
  YS02001790YS02001791 CONDUIT   1131.17     0  01:56      3.28    1.23    1.00
  YS02001791YS02001793 CONDUIT   1045.74     0  01:56      6.26    0.45    1.00
  YS02001910YS02001907 CONDUIT    600.89     0  02:00      0.77    0.34    1.00
  YS02001786YS02001788 CONDUIT   1097.84     0  01:57      2.36    2.12    1.00
  YS02001915YS02001910 CONDUIT    600.87     0  02:00      0.77    0.30    1.00
  YS02001918YS02001915 CONDUIT    319.07     0  02:00      0.46    0.18    1.00
  YS02001923YS02001920 CONDUIT    315.37     0  02:00      0.78    0.14    1.00
  YS02001926YS02001923 CONDUIT    287.91     0  02:00      0.87    0.41    1.00
  YS02001929YS02001926 CONDUIT    215.95     0  01:59      0.93    0.10    0.91
  YS02001920YS02001918 CONDUIT    317.96     0  02:00      0.76    0.31    1.00
  YS02001629YS02163301 CONDUIT    229.92     0  01:48      0.29    0.28    1.00
  YS02001619YS02001622 CONDUIT    336.71     0  02:16      0.76    0.50    1.00
  YS02001622YS02001625 CONDUIT    336.60     0  02:16      0.43    0.18    1.00
  YS02001625YS02001629 CONDUIT    210.54     0  01:47      0.31    0.10    1.00
  YS02163301YS02001633 CONDUIT    230.01     0  01:48      0.29    0.22    1.00
  YS02163601YS02164001 CONDUIT    424.12     0  01:51      0.54    0.38    1.00
  YS02164001YS02001641 CONDUIT    423.63     0  01:51      0.54    0.58    1.00
  YS02001641YS02001644 CONDUIT    423.44     0  01:51      0.54    1.37    1.00
  YS02001647YS02001649 CONDUIT    757.57     0  02:48      0.96    0.40    1.00
  YS02006553YS02006556 CONDUIT    690.01     0  01:57      0.88    0.59    1.00
  YS02006556YS02006558 CONDUIT    690.16     0  01:57      0.88    0.54    1.00
  YSB6556YSB1171       CONDUIT     43.98     0  01:54      0.13    0.05    0.82
  YS02001907YS02006553 CONDUIT    690.08     0  01:57      0.77    0.81    1.00
  YS02006558YS02006561 CONDUIT   1119.33     0  01:57      3.96    2.47    1.00
  YS02001633YS02163601 CONDUIT    424.15     0  01:51      0.54    0.45    1.00
  YS02001644YS02001647 CONDUIT    757.64     0  02:48      0.96    0.45    1.00
  YS02001745YS02001748 CONDUIT    395.22     0  02:16      1.73    0.15    0.97
  YS02001748YS02001751 CONDUIT    395.29     0  02:16      1.26    0.20    1.00
  YS02001751YS02001754 CONDUIT    395.25     0  02:16      1.03    0.19    1.00
  YS02001754YS02001757 CONDUIT    395.45     0  02:16      0.50    0.16    1.00
  YS02001882YS02001884 CONDUIT     20.13     0  01:52      0.12    0.02    1.00
  YS02001884YS02001887 CONDUIT     47.01     0  01:52      0.09    0.06    1.00
  YS02001890YS02001895 CONDUIT    519.26     0  01:58      0.66    0.24    1.00
  YS02001895YS02001898 CONDUIT    519.39     0  01:58      0.66    0.90    1.00
  YS02001898YS02001901 CONDUIT    519.78     0  01:58      0.66    0.34    1.00
  YS02001901YS02001904 CONDUIT    519.86     0  01:57      0.66    0.81    1.00
  YS02001904YS02001907 CONDUIT    520.61     0  01:57      0.66    0.18    1.00
  YS02001887YS02001890 CONDUIT    606.18     0  02:15      0.77    1.04    1.00
  YS02001652YS02001649 CONDUIT    473.53     0  02:14      0.60    0.23    1.00
  YS02001655YS02001652 CONDUIT    473.16     0  02:14      1.09    0.23    1.00
  YS02001658YS02001655 CONDUIT    472.80     0  02:14      1.45    0.20    1.00
  YS02001661YS02001658 CONDUIT    490.60     0  02:13      1.85    0.19    1.00
  YS02001664YS02001661 CONDUIT    770.10     0  02:04      1.75    0.24    0.77
  YSB1154YSB6556       CONDUIT     43.64     0  01:53      0.17    0.08    0.72
  YSB1174YSB1171       CONDUIT     35.15     0  01:50      0.10    0.05    0.83
  YSB1171HS02004479    CONDUIT     78.00     0  01:53      0.54    0.05    0.67
  HS02004881HS02006253 CONDUIT    139.58     0  01:55      2.11    0.03    0.23
  YS02001793JiankangQianchi CONDUIT   1024.48     0  01:58     14.64    0.08    1.00
  YS02001757CaochengTiaoxuchi CONDUIT   2128.12     0  02:02      3.68    0.93    1.00
  WSF200WS02003060     CONDUIT    793.78     0  01:58      2.09    0.18    0.40
  1                    CONDUIT   1084.04     0  01:57      3.40    0.38    0.43
  2                    CONDUIT    100.63     0  02:11      4.86    0.24    0.33
  3                    CONDUIT    597.65     0  00:00     10.05    0.95    0.86
  4                    CONDUIT      0.00     0  00:00      0.00    0.00    0.00
  CC-Pump-1            PUMP       200.00     0  04:20              1.00
  CC-Pump-2            PUMP       200.00     0  02:50              1.00
  JK-Pump-1            PUMP       300.00     0  00:00              1.00
  JK-Pump-2            PUMP       300.00     0  00:00              1.00
  XR-Pump-1            PUMP        95.00     0  01:50              1.00
  XR-Pump-2            PUMP        95.00     0  00:50              1.00
  XR-Pump-3            PUMP        95.00     0  00:00              1.00
  XR-Pump-4            PUMP        95.00     0  00:00              1.00
  
  
  ***************************
  Flow Classification Summary
  ***************************
  
  -------------------------------------------------------------------------------------
                      Adjusted    ---------- Fraction of Time in Flow Class ---------- 
                       /Actual         Up    Down  Sub   Sup   Up    Down  Norm  Inlet 
  Conduit               Length    Dry  Dry   Dry   Crit  Crit  Crit  Crit  Ltd   Ctrl  
  -------------------------------------------------------------------------------------
  WS02003066WSF200        1.00   0.07  0.00  0.00  0.00  0.93  0.00  0.00  0.60  0.00
  WS02006287WS02006284    1.00   0.03  0.01  0.00  0.61  0.35  0.00  0.00  0.65  0.00
  WS02006284WS02006280    1.00   0.04  0.00  0.00  0.00  0.00  0.00  0.96  0.00  0.00
  WS02006280WS02006229    1.00   0.04  0.00  0.00  0.00  0.00  0.00  0.96  0.00  0.00
  WS02006229WS02006228    1.00   0.00  0.00  0.00  0.98  0.00  0.00  0.02  0.00  0.00
  WS02006256WS02006235    1.00   0.00  0.00  0.00  1.00  0.00  0.00  0.00  0.00  0.00
  WS02006253WS02006251    1.00   0.02  0.01  0.00  0.96  0.00  0.00  0.00  0.00  0.00
  WS02006252WS02006251    1.00   0.06  0.00  0.00  0.00  0.00  0.94  0.00  0.00  0.00
  WS02006251WS02006249    1.00   0.00  0.00  0.00  1.00  0.00  0.00  0.00  0.20  0.00
  WS02006249WS02006248    1.00   0.00  0.02  0.00  0.92  0.00  0.06  0.00  0.00  0.00
  WS02006248WS02006247    1.00   0.02  0.00  0.00  0.97  0.00  0.00  0.01  0.09  0.00
  WS02006247WS02006245    1.00   0.02  0.00  0.00  0.97  0.00  0.00  0.02  0.00  0.00
  WS02006245WS02006243    1.00   0.02  0.00  0.00  0.95  0.00  0.00  0.03  0.02  0.00
  WS02006243WS02006242    1.00   0.01  0.00  0.00  0.99  0.00  0.00  0.00  0.17  0.00
  WS02006242WS02006240    1.00   0.00  0.00  0.00  0.99  0.00  0.00  0.00  0.00  0.00
  WS02006240WS02006239    1.00   0.00  0.00  0.00  0.97  0.00  0.00  0.03  0.02  0.00
  WS02006239WS02006238    1.00   0.00  0.00  0.00  1.00  0.00  0.00  0.00  0.00  0.00
  WS02006238WS02006235    1.00   0.00  0.00  0.00  1.00  0.00  0.00  0.00  0.00  0.00
  WS02006235WS02006234    1.00   0.00  0.00  0.00  0.97  0.00  0.03  0.00  0.00  0.00
  WS02006234WS02006232    1.00   0.00  0.00  0.00  1.00  0.00  0.00  0.00  0.05  0.00
  WS02006232WS02006231    1.00   0.00  0.00  0.00  0.99  0.00  0.01  0.00  0.00  0.00
  WS02006231WS02006230    1.00   0.00  0.00  0.00  0.62  0.00  0.37  0.00  0.00  0.00
  WS02006230WS02006229    1.00   0.00  0.00  0.00  0.98  0.00  0.00  0.02  0.01  0.00
  WS02006228WS02006109    1.00   0.00  0.00  0.00  1.00  0.00  0.00  0.00  0.00  0.00
  WS02006116WS02004401    1.00   0.02  0.00  0.00  0.98  0.00  0.00  0.00  0.00  0.00
  WS02006115WS02006116    1.00   0.02  0.00  0.00  0.97  0.00  0.00  0.01  0.01  0.00
  WS02006113WS02006111    1.00   0.02  0.00  0.00  0.05  0.93  0.00  0.00  0.11  0.00
  WS02006112WS02006115    1.00   0.02  0.00  0.00  0.98  0.00  0.00  0.00  0.00  0.00
  WS02006111WS02006112    1.00   0.02  0.00  0.00  0.98  0.00  0.00  0.00  0.88  0.00
  WS02006110WS02006113    1.00   0.01  0.00  0.00  0.98  0.00  0.00  0.00  0.00  0.00
  WS02006109WS02006110    1.00   0.00  0.01  0.00  0.98  0.00  0.00  0.00  0.00  0.00
  WS02004411WS02004412    1.00   0.05  0.00  0.00  0.95  0.00  0.00  0.00  0.00  0.00
  WS02004401WS02004402    1.00   0.02  0.00  0.00  0.98  0.00  0.00  0.00  0.00  0.00
  WS02004413WS02003067    1.00   0.05  0.01  0.00  0.00  0.00  0.94  0.00  0.00  0.00
  WS02004412WS02004413    1.00   0.05  0.00  0.00  0.95  0.00  0.00  0.00  0.00  0.00
  WS02004410WS02004411    1.00   0.05  0.00  0.00  0.95  0.00  0.00  0.00  0.00  0.00
  WS02004409WS02004410    1.00   0.05  0.00  0.00  0.95  0.00  0.00  0.00  0.00  0.00
  WS02004407WS02004409    1.00   0.05  0.00  0.00  0.94  0.01  0.00  0.00  0.80  0.00
  WS02004406WS02004407    1.00   0.00  0.04  0.00  0.95  0.00  0.00  0.00  0.00  0.00
  WS02004405WS02004406    1.00   0.00  0.00  0.00  1.00  0.00  0.00  0.00  0.02  0.00
  WS02004404WS02004405    1.00   0.00  0.00  0.00  1.00  0.00  0.00  0.00  0.00  0.00
  WS02004403WS02004404    1.00   0.00  0.02  0.00  0.98  0.00  0.00  0.00  0.02  0.00
  WS02004402WS02004403    1.00   0.02  0.00  0.00  0.98  0.00  0.00  0.00  0.00  0.00
  WS02004139WS02001211    1.00   0.00  0.00  0.00  0.99  0.00  0.01  0.00  0.00  0.00
  WS02004138WS02004139    1.00   0.00  0.00  0.00  0.99  0.01  0.00  0.00  1.00  0.00
  WS02003067WS02003066    1.00   0.06  0.01  0.00  0.93  0.00  0.00  0.00  0.00  0.00
  WS02001213WS02003059    1.00   0.00  0.00  0.00  0.99  0.00  0.00  0.00  0.00  0.00
  WS02001212WS02001213    1.00   0.01  0.00  0.00  0.90  0.00  0.10  0.00  0.00  0.00
  WS02001211WS02001212    1.00   0.00  0.01  0.00  0.99  0.00  0.00  0.00  0.00  0.00
  WS02003072WS02003073    1.00   0.00  0.00  0.00  0.00  0.00  0.00  1.00  0.00  0.00
  WS02003069WS02003072    1.00   0.00  0.00  0.00  0.99  0.01  0.00  0.00  0.20  0.00
  WS02003060WS02003069    1.00   0.00  0.00  0.00  0.98  0.02  0.00  0.00  0.12  0.00
  WS02003059WS02003060    1.00   0.00  0.00  0.00  0.99  0.01  0.00  0.00  0.01  0.00
  HS02004901HS02004770    1.00   0.03  0.00  0.00  0.96  0.00  0.00  0.00  0.00  0.00
  HS02004876HS02004881    1.00   0.02  0.00  0.00  0.84  0.15  0.00  0.00  0.00  0.00
  HS02004870HS02004876    1.00   0.01  0.00  0.00  0.99  0.00  0.00  0.00  0.95  0.00
  HS02004842HS02004848    1.00   0.00  0.03  0.00  0.96  0.00  0.00  0.00  0.57  0.00
  HS02004837HS02004842    1.00   0.00  0.00  0.00  0.99  0.01  0.00  0.00  0.11  0.00
  HS02004830HS02004837    1.00   0.00  0.00  0.00  1.00  0.00  0.00  0.00  0.99  0.00
  HS02004824HS02004830    1.00   0.00  0.00  0.00  1.00  0.00  0.00  0.00  0.03  0.00
  HS02004817HS02004824    1.00   0.00  0.00  0.00  1.00  0.00  0.00  0.00  0.94  0.00
  HS02004770HS02004777    1.00   0.00  0.03  0.00  0.96  0.00  0.00  0.00  0.03  0.00
  HS02004799HS02004480    1.00   0.00  0.02  0.00  0.96  0.00  0.02  0.00  0.00  0.00
  HS02004792HS02004799    1.00   0.00  0.00  0.00  0.99  0.01  0.00  0.00  0.98  0.00
  HS02004788HS02004792    1.00   0.00  0.00  0.00  0.99  0.01  0.00  0.00  0.98  0.00
  HS02004785HS02004788    1.00   0.00  0.00  0.00  1.00  0.00  0.00  0.00  0.00  0.00
  HS02004777HS02004785    1.00   0.00  0.00  0.00  1.00  0.00  0.00  0.00  0.13  0.00
  HS02004480HS02004478    1.00   0.04  0.00  0.00  0.66  0.00  0.00  0.31  0.00  0.00
  HS02004479HS02004480    1.00   0.02  0.00  0.00  0.98  0.00  0.00  0.00  0.12  0.00
  HS02004862HS02004870    1.00   0.00  0.00  0.00  1.00  0.00  0.00  0.00  0.04  0.00
  HS02004848HS02004852    1.00   0.04  0.00  0.00  0.96  0.00  0.00  0.00  0.78  0.00
  HS02004856HS02004862    1.00   0.00  0.04  0.00  0.96  0.00  0.00  0.00  0.82  0.00
  HS02004852HS02004856    1.00   0.03  0.00  0.00  0.96  0.00  0.00  0.00  0.77  0.00
  HS02004802HS02004478    1.00   0.04  0.00  0.00  0.96  0.00  0.00  0.00  0.03  0.00
  HS02004478WS02006287    1.00   0.04  0.00  0.00  0.70  0.26  0.00  0.00  0.62  0.00
  HS02004817HS02004807    1.00   0.00  0.04  0.00  0.96  0.00  0.00  0.00  0.01  0.00
  HS02004807HS02004802    1.00   0.04  0.00  0.00  0.96  0.00  0.00  0.00  0.00  0.00
  YS02001759YS02001757    1.00   0.00  0.00  0.00  1.00  0.00  0.00  0.00  0.16  0.00
  YS02001762YS02001759    1.00   0.00  0.00  0.00  1.00  0.00  0.00  0.00  0.03  0.00
  YS02001765YS02001762    1.00   0.00  0.00  0.00  1.00  0.00  0.00  0.00  0.14  0.00
  YS02001770YS02001767    1.00   0.00  0.00  0.00  1.00  0.00  0.00  0.00  0.00  0.00
  YS02001774YS02001770    1.00   0.00  0.03  0.00  0.96  0.00  0.00  0.00  0.03  0.00
  YS02001779YS02001774    1.00   0.00  0.00  0.00  1.00  0.00  0.00  0.00  0.18  0.00
  YS02001649YS02001757    1.00   0.00  0.00  0.00  1.00  0.00  0.00  0.00  0.16  0.00
  YS02001767YS02001765    1.00   0.00  0.00  0.00  1.00  0.00  0.00  0.00  0.00  0.00
  YS02006561YS02001783    1.00   0.04  0.00  0.00  0.45  0.50  0.00  0.00  0.50  0.00
  YS02001783YS02001784    1.00   0.00  0.05  0.00  0.95  0.00  0.00  0.00  0.00  0.00
  YS02001784YS02001785    1.00   0.00  0.00  0.00  1.00  0.00  0.00  0.00  0.17  0.00
  YS02001788YS02001790    1.00   0.00  0.00  0.00  0.48  0.52  0.00  0.00  0.43  0.00
  YS02001790YS02001791    1.00   0.00  0.00  0.00  0.45  0.55  0.00  0.00  0.41  0.00
  YS02001791YS02001793    1.00   0.00  0.00  0.00  0.45  0.55  0.00  0.00  0.01  0.00
  YS02001910YS02001907    1.00   0.00  0.00  0.00  0.98  0.00  0.00  0.02  0.12  0.00
  YS02001786YS02001788    1.00   0.00  0.00  0.00  0.49  0.51  0.00  0.00  0.00  0.00
  YS02001915YS02001910    1.00   0.00  0.00  0.00  0.99  0.01  0.00  0.00  0.16  0.00
  YS02001918YS02001915    1.00   0.00  0.01  0.00  0.99  0.00  0.00  0.00  0.52  0.00
  YS02001923YS02001920    1.00   0.00  0.00  0.00  1.00  0.00  0.00  0.00  0.74  0.00
  YS02001926YS02001923    1.00   0.00  0.03  0.00  0.25  0.00  0.72  0.00  0.00  0.00
  YS02001929YS02001926    1.00   0.00  0.03  0.00  0.97  0.00  0.00  0.00  0.66  0.00
  YS02001920YS02001918    1.00   0.00  0.01  0.00  0.99  0.00  0.00  0.00  0.00  0.00
  YS02001629YS02163301    1.00   0.04  0.00  0.00  0.96  0.00  0.00  0.00  0.00  0.00
  YS02001619YS02001622    1.00   0.03  0.00  0.00  0.97  0.00  0.00  0.00  0.00  0.00
  YS02001622YS02001625    1.00   0.04  0.00  0.00  0.96  0.00  0.00  0.00  0.05  0.00
  YS02001625YS02001629    1.00   0.04  0.01  0.00  0.94  0.00  0.01  0.00  0.00  0.00
  YS02163301YS02001633    1.00   0.00  0.04  0.00  0.96  0.00  0.00  0.00  0.00  0.00
  YS02163601YS02164001    1.00   0.00  0.03  0.00  0.97  0.00  0.00  0.00  0.00  0.00
  YS02164001YS02001641    1.00   0.01  0.02  0.00  0.97  0.00  0.00  0.00  0.06  0.00
  YS02001641YS02001644    1.00   0.00  0.01  0.00  0.99  0.00  0.00  0.00  0.00  0.00
  YS02001647YS02001649    1.00   0.00  0.04  0.00  0.96  0.00  0.00  0.00  0.01  0.00
  YS02006553YS02006556    1.00   0.02  0.00  0.00  0.98  0.00  0.00  0.00  0.03  0.00
  YS02006556YS02006558    1.00   0.00  0.00  0.00  1.00  0.00  0.00  0.00  0.00  0.00
  YSB6556YSB1171          1.00   0.02  0.01  0.00  0.97  0.00  0.00  0.00  0.00  0.00
  YS02001907YS02006553    1.00   0.00  0.01  0.00  0.98  0.00  0.00  0.00  0.00  0.00
  YS02006558YS02006561    1.00   0.04  0.00  0.00  0.27  0.69  0.00  0.00  0.42  0.00
  YS02001633YS02163601    1.00   0.00  0.01  0.00  0.99  0.00  0.00  0.00  0.15  0.00
  YS02001644YS02001647    1.00   0.00  0.04  0.00  0.96  0.00  0.00  0.00  0.00  0.00
  YS02001745YS02001748    1.00   0.00  0.00  0.00  0.92  0.00  0.00  0.07  0.01  0.00
  YS02001748YS02001751    1.00   0.00  0.00  0.00  0.98  0.02  0.00  0.00  0.14  0.00
  YS02001751YS02001754    1.00   0.00  0.00  0.00  0.95  0.00  0.00  0.05  0.01  0.00
  YS02001754YS02001757    1.00   0.00  0.00  0.00  0.99  0.01  0.00  0.00  0.18  0.00
  YS02001882YS02001884    1.00   0.04  0.00  0.00  0.96  0.00  0.00  0.00  0.00  0.00
  YS02001884YS02001887    1.00   0.02  0.01  0.00  0.97  0.00  0.00  0.00  0.00  0.00
  YS02001890YS02001895    1.00   0.00  0.04  0.00  0.96  0.00  0.00  0.00  0.00  0.00
  YS02001895YS02001898    1.00   0.04  0.00  0.00  0.95  0.00  0.01  0.00  0.00  0.00
  YS02001898YS02001901    1.00   0.04  0.00  0.00  0.96  0.00  0.00  0.00  0.01  0.00
  YS02001901YS02001904    1.00   0.04  0.00  0.00  0.96  0.00  0.00  0.00  0.00  0.00
  YS02001904YS02001907    1.00   0.00  0.04  0.00  0.96  0.00  0.00  0.00  0.00  0.00
  YS02001887YS02001890    1.00   0.00  0.00  0.00  0.98  0.00  0.02  0.00  0.00  0.00
  YS02001652YS02001649    1.00   0.00  0.00  0.00  1.00  0.00  0.00  0.00  0.16  0.00
  YS02001655YS02001652    1.00   0.00  0.00  0.00  0.95  0.00  0.00  0.05  0.01  0.00
  YS02001658YS02001655    1.00   0.00  0.04  0.00  0.94  0.02  0.00  0.00  0.02  0.00
  YS02001661YS02001658    1.00   0.04  0.00  0.00  0.92  0.04  0.00  0.00  0.00  0.00
  YS02001664YS02001661    1.00   0.03  0.00  0.00  0.93  0.04  0.00  0.00  0.10  0.00
  YSB1154YSB6556          1.00   0.03  0.00  0.00  0.97  0.00  0.00  0.00  0.02  0.00
  YSB1174YSB1171          1.00   0.02  0.01  0.00  0.97  0.00  0.00  0.00  0.00  0.00
  YSB1171HS02004479       1.00   0.02  0.00  0.00  0.98  0.00  0.00  0.00  0.11  0.00
  HS02004881HS02006253    1.00   0.02  0.00  0.00  0.65  0.09  0.00  0.23  0.59  0.00
  YS02001793JiankangQianchi    1.00   0.00  0.00  0.00  0.60  0.40  0.00  0.00  0.13  0.00
  YS02001757CaochengTiaoxuchi    1.00   0.00  0.06  0.00  0.90  0.05  0.00  0.00  0.00  0.00
  WSF200WS02003060        1.00   0.00  0.07  0.00  0.54  0.39  0.00  0.00  0.15  0.00
  1                       1.00   0.00  0.00  0.00  0.00  1.00  0.00  0.00  0.46  0.00
  2                       1.00   0.62  0.00  0.00  0.00  0.38  0.00  0.00  0.06  0.00
  3                       1.00   0.10  0.00  0.00  0.00  0.90  0.00  0.00  0.01  0.00
  4                       1.00   1.00  0.00  0.00  0.00  0.00  0.00  0.00  0.00  0.00
  
  
  *************************
  Conduit Surcharge Summary
  *************************
  
  ----------------------------------------------------------------------------
                                                           Hours        Hours 
                         --------- Hours Full --------   Above Full   Capacity
  Conduit                Both Ends  Upstream  Dnstream   Normal Flow   Limited
  ----------------------------------------------------------------------------
  WS02006229WS02006228        2.59      2.85      2.59      4.63         2.59
  WS02006256WS02006235        6.27      6.27      7.31      3.12         0.01
  WS02006252WS02006251        1.05      1.05      1.75      1.57         0.01
  WS02006251WS02006249        0.01      0.01      0.01      1.00         0.01
  WS02006249WS02006248        0.01      0.01      0.01      3.75         0.01
  WS02006247WS02006245        0.01      0.01      0.01      4.57         0.01
  WS02006245WS02006243        0.01      0.01      0.26      0.01         0.01
  WS02006243WS02006242        0.49      0.49      1.64      0.01         0.01
  WS02006242WS02006240        0.78      0.78      2.18      1.64         0.01
  WS02006240WS02006239        0.80      0.80      0.90      0.04         0.01
  WS02006239WS02006238        2.06      2.06      2.21      0.15         0.14
  WS02006238WS02006235        2.09      2.09      2.57      0.01         0.01
  WS02006235WS02006234        0.99      0.99      1.82      6.29         0.05
  WS02006234WS02006232        1.09      1.09      2.70      0.01         0.01
  WS02006232WS02006231        0.85      0.85      2.70      0.01         0.01
  WS02006231WS02006230        0.81      0.81      0.86      6.26         0.02
  WS02006230WS02006229        3.56      4.23      3.56      6.32         3.54
  WS02006228WS02006109        2.70      3.26      2.70      5.78         2.70
  WS02006116WS02004401        0.55      0.55      0.56      0.43         0.43
  WS02006115WS02006116        0.29      0.29      0.30      0.16         0.16
  WS02006112WS02006115        0.24      0.24      1.32      0.01         0.01
  WS02006111WS02006112        0.01      0.01      4.99      0.01         0.01
  WS02006110WS02006113        0.01      0.01      3.06      0.01         0.01
  WS02006109WS02006110        1.15      1.15      3.26      1.16         0.01
  WS02004411WS02004412        0.01      0.01      0.01      0.52         0.01
  WS02004401WS02004402        0.56      0.56      0.60      0.01         0.01
  WS02004410WS02004411        0.01      0.01      0.01      0.39         0.01
  WS02004409WS02004410        0.01      0.01      0.01      0.18         0.01
  WS02004406WS02004407        0.01      0.01      0.74      0.01         0.01
  WS02004405WS02004406        0.74      0.78      0.74      1.24         0.74
  WS02004404WS02004405        0.78      0.82      0.78      6.23         0.78
  WS02004403WS02004404        0.61      0.61      0.82      0.01         0.01
  WS02004402WS02004403        0.60      0.60      0.61      0.54         0.53
  WS02003072WS02003073        0.01      0.01      0.01      5.85         0.01
  HS02004876HS02004881        0.01      0.01      0.01      0.49         0.01
  HS02004785HS02004788        0.01      0.01      0.01      0.35         0.01
  HS02004480HS02004478        0.01      0.01      0.01      0.79         0.01
  YS02001759YS02001757        6.09      6.09      6.12      0.01         0.01
  YS02001762YS02001759        6.09      6.09      6.09      0.01         0.01
  YS02001765YS02001762        6.08      6.08      6.09      0.01         0.01
  YS02001770YS02001767        6.07      6.07      6.07      0.41         0.75
  YS02001774YS02001770        6.07      6.07      6.08      0.01         0.01
  YS02001779YS02001774        6.04      6.04      6.08      0.01         0.01
  YS02001649YS02001757        6.08      6.08      6.12      0.01         0.01
  YS02001767YS02001765        6.07      6.07      6.08      0.01         0.01
  YS02006561YS02001783        1.60      1.60      2.14      0.01         0.01
  YS02001783YS02001784        2.12      2.14      2.18      2.03         1.91
  YS02001784YS02001785        2.07      2.18      2.07      2.74         2.06
  YS02001788YS02001790        2.03      2.03      2.83      0.01         0.01
  YS02001790YS02001791        2.83      2.83      2.86      1.53         1.46
  YS02001791YS02001793        2.86      2.86      2.94      0.01         0.01
  YS02001910YS02001907        1.94      1.94      2.25      0.01         0.01
  YS02001786YS02001788        2.03      2.07      2.03      2.44         2.03
  YS02001915YS02001910        1.75      1.75      1.94      0.01         0.01
  YS02001918YS02001915        1.51      1.51      1.75      0.01         0.01
  YS02001923YS02001920        1.34      1.34      1.55      0.01         0.01
  YS02001926YS02001923        0.01      0.01      0.01      0.01         0.01
  YS02001929YS02001926        0.01      0.01      0.01      0.01         0.01
  YS02001920YS02001918        1.51      1.51      1.55      0.01         0.01
  YS02001629YS02163301        6.06      6.06      6.07      0.01         0.01
  YS02001619YS02001622        6.02      6.02      6.02      0.01         0.01
  YS02001622YS02001625        6.02      6.02      6.05      0.01         0.01
  YS02001625YS02001629        6.02      6.02      6.05      0.01         0.01
  YS02163301YS02001633        6.07      6.07      6.08      0.01         0.01
  YS02163601YS02164001        6.08      6.08      6.09      0.01         0.01
  YS02164001YS02001641        6.08      6.08      6.08      0.01         0.02
  YS02001641YS02001644        6.08      6.08      6.08      2.21         2.26
  YS02001647YS02001649        6.05      6.05      6.08      0.01         0.01
  YS02006553YS02006556        2.11      2.11      2.30      0.01         0.01
  YS02006556YS02006558        2.18      2.18      2.36      0.01         0.01
  YSB6556YSB1171              0.01      0.01      0.14      0.01         0.01
  YS02001907YS02006553        2.76      2.76      2.95      0.01         0.01
  YS02006558YS02006561        1.78      2.09      1.78      2.63         1.78
  YS02001633YS02163601        6.08      6.08      6.09      0.01         0.01
  YS02001644YS02001647        6.05      6.05      6.08      0.01         0.01
  YS02001745YS02001748        0.01      0.01      5.99      0.01         0.01
  YS02001748YS02001751        6.00      6.00      6.02      0.01         0.01
  YS02001751YS02001754        6.02      6.02      6.05      0.01         0.01
  YS02001754YS02001757        6.05      6.05      6.12      0.01         0.01
  YS02001882YS02001884        1.76      1.76      1.79      0.01         0.01
  YS02001884YS02001887        1.84      1.84      1.87      0.01         0.01
  YS02001890YS02001895        1.74      1.74      1.96      0.01         0.01
  YS02001895YS02001898        1.72      1.72      1.74      0.01         0.01
  YS02001898YS02001901        1.74      1.74      1.84      0.01         0.01
  YS02001901YS02001904        1.82      1.82      1.84      0.01         0.01
  YS02001904YS02001907        1.82      1.82      2.33      0.01         0.01
  YS02001887YS02001890        1.90      1.90      1.93      0.20         0.01
  YS02001652YS02001649        6.06      6.06      6.08      0.01         0.01
  YS02001655YS02001652        6.02      6.02      6.05      0.01         0.01
  YS02001658YS02001655        5.99      5.99      6.02      0.01         0.01
  YS02001661YS02001658        0.22      0.22      5.99      0.01         0.01
  YS02001664YS02001661        0.01      0.01      1.86      0.01         0.01
  YS02001793JiankangQianchi        2.92      2.92      3.67      0.01         0.01
  YS02001757CaochengTiaoxuchi        5.63      5.63      6.12      0.01         0.01
  3                           0.01      0.01      0.01      0.01         0.01
  
  
  ***************
  Pumping Summary
  ***************
  
  ---------------------------------------------------------------------------------------------------------
                                                  Min       Avg       Max     Total     Power    % Time Off
                        Percent   Number of      Flow      Flow      Flow    Volume     Usage    Pump Curve
  Pump                 Utilized   Start-Ups       LPS       LPS       LPS  10^6 ltr     Kw-hr    Low   High
  ---------------------------------------------------------------------------------------------------------
  CC-Pump-1               60.12           8      0.00    127.66    200.00     2.169      2.45    0.0    4.5
  CC-Pump-2               55.31           7      0.00    135.78    200.00     2.100      2.04    0.0    0.0
  JK-Pump-1               74.47           7      0.00    182.63    300.00     3.139     36.76    0.0    0.0
  JK-Pump-2               80.85           8      0.00    169.81    300.00     3.038     37.13    0.0    0.0
  XR-Pump-1               82.96          10      0.00     59.04     95.00     1.339      7.61    0.0    0.0
  XR-Pump-2               82.95           9      0.00     71.13     95.00     1.596      9.08    0.0    0.0
  XR-Pump-3               89.34           8      0.00     60.11     95.00     1.568     10.55    0.0    0.0
  XR-Pump-4               76.58           9      0.00     70.53     95.00     1.539     10.31    0.0    0.0
  

  Analysis begun on:  Tue Dec 14 17:19:35 2021
  Analysis ended on:  Tue Dec 14 17:19:39 2021
  Total elapsed time: 00:00:04