
  EPA STORM WATER MANAGEMENT MODEL - VERSION 5.1 (Build 5.3.0.dev0)
  --------------------------------------------------------------

  WARNING 04: minimum elevation drop used for Conduit WS02004404WS02004405
  WARNING 03: negative offset ignored for Link YS02001904YS02001907
  
  *********************************************************
  NOTE: The summary statistics displayed in this report are
  based on results found at every computational time step,  
  not just on results from each reporting time step.
  *********************************************************
  
  ****************
  Analysis Options
  ****************
  Flow Units ............... LPS
  Process Models:
    Rainfall/Runoff ........ YES
    RDII ................... NO
    Snowmelt ............... NO
    Groundwater ............ NO
    Flow Routing ........... YES
    Ponding Allowed ........ NO
    Water Quality .......... NO
  Infiltration Method ...... HORTON
  Flow Routing Method ...... DYNWAVE
  Surcharge Method ......... EXTRAN
  Starting Date ............ 08/28/2015 08:00:00
  Ending Date .............. 08/28/2015 15:50:00
  Antecedent Dry Days ...... 8.0
  Report Time Step ......... 00:01:00
  Wet Time Step ............ 00:01:00
  Dry Time Step ............ 00:01:00
  Routing Time Step ........ 5.00 sec
  Variable Time Step ....... YES
  Maximum Trials ........... 8
  Number of Threads ........ 4
  Head Tolerance ........... 0.001500 m
  
  
  **************************        Volume         Depth
  Runoff Quantity Continuity     hectare-m            mm
  **************************     ---------       -------
  Total Precipitation ......         5.151        11.277
  Evaporation Loss .........         0.000         0.000
  Infiltration Loss ........         1.323         2.897
  Surface Runoff ...........         2.817         6.167
  Final Storage ............         1.011         2.215
  Continuity Error (%) .....        -0.015
  
  
  **************************        Volume        Volume
  Flow Routing Continuity        hectare-m      10^6 ltr
  **************************     ---------     ---------
  Dry Weather Inflow .......         0.616         6.165
  Wet Weather Inflow .......         2.816        28.156
  Groundwater Inflow .......         0.000         0.000
  RDII Inflow ..............         0.000         0.000
  External Inflow ..........         0.102         1.024
  External Outflow .........         1.790        17.902
  Flooding Loss ............         1.247        12.473
  Evaporation Loss .........         0.000         0.000
  Exfiltration Loss ........         0.000         0.000
  Initial Stored Volume ....         0.076         0.761
  Final Stored Volume ......         0.624         6.236
  Continuity Error (%) .....        -1.401
  
  
  *************************
  Highest Continuity Errors
  *************************
  Node HS02004842 (17.03%)
  Node YS02001884 (10.77%)
  Node JK-storage (-5.82%)
  Node YSB1171 (3.39%)
  Node YS02001774 (3.31%)
  
  
  ***************************
  Time-Step Critical Elements
  ***************************
  Link WS02006252WS02006251 (48.54%)
  Link 3 (43.33%)
  Link WS02006238WS02006235 (3.14%)
  Link WS02006280WS02006229 (1.13%)
  
  
  ********************************
  Highest Flow Instability Indexes
  ********************************
  Link WS02006113WS02006111 (42)
  Link YS02001619YS02001622 (36)
  Link YS02001629YS02163301 (36)
  Link YS02163301YS02001633 (36)
  Link YS02163601YS02164001 (36)
  
  
  *************************
  Routing Time Step Summary
  *************************
  Minimum Time Step           :     0.50 sec
  Average Time Step           :     0.79 sec
  Maximum Time Step           :     5.00 sec
  Percent in Steady State     :    -0.00
  Average Iterations per Step :     4.69
  Percent Not Converging      :    23.54
  
  
  ***************************
  Subcatchment Runoff Summary
  ***************************
  
  ------------------------------------------------------------------------------------------------------------------------------
                            Total      Total      Total      Total     Imperv       Perv      Total       Total     Peak  Runoff
                           Precip      Runon       Evap      Infil     Runoff     Runoff     Runoff      Runoff   Runoff   Coeff
  Subcatchment                 mm         mm         mm         mm         mm         mm         mm    10^6 ltr      LPS
  ------------------------------------------------------------------------------------------------------------------------------
  sub0                      11.28       0.00       0.00       0.79       9.22       0.00       9.22        0.01     1.44   0.818
  sub1                      11.28       0.00       0.00       1.24       8.78       0.00       8.78        0.06    10.11   0.778
  sub2                      11.28       0.00       0.00       4.17       6.20       0.00       6.20        0.06     9.79   0.549
  sub3                      11.28       0.00       0.00       4.17       6.16       0.00       6.16        0.14    22.44   0.546
  sub4                      11.28       0.00       0.00       1.24       8.63       0.00       8.63        0.18    27.35   0.765
  sub5                      11.28       0.00       0.00       0.79       9.17       0.00       9.17        0.10    18.00   0.813
  sub7                      11.28       0.00       0.00       1.01       9.01       0.00       9.01        0.03     5.34   0.799
  sub8                      11.28       0.00       0.00       1.01       9.00       0.00       9.00        0.06    10.08   0.798
  sub9                      11.28       0.00       0.00       1.01       8.99       0.00       8.99        0.04     7.58   0.798
  sub10                     11.28       0.00       0.00       0.90       9.08       0.00       9.08        0.10    17.43   0.805
  sub11                     11.28       0.00       0.00       0.90       9.10       0.00       9.10        0.11    18.56   0.807
  sub12                     11.28       0.00       0.00       1.47       8.62       0.00       8.62        0.08    13.79   0.765
  sub14                     11.28       0.00       0.00       1.01       8.99       0.00       8.99        0.09    14.98   0.797
  sub15                     11.28       0.00       0.00       3.38       6.91       0.00       6.91        0.12    20.76   0.613
  sub16                     11.28       0.00       0.00       3.72       6.64       0.00       6.64        0.07    12.34   0.589
  sub17                     11.28       0.00       0.00       3.61       6.73       0.00       6.73        0.06    10.18   0.597
  sub22                     11.28       0.00       0.00       4.85       5.64       0.00       5.64        0.36    62.58   0.500
  sub23                     11.28       0.00       0.00       4.17       6.23       0.00       6.23        0.30    52.29   0.553
  sub60                     11.28       0.00       0.00       1.35       7.08       0.00       7.08        2.14   214.31   0.627
  sub61                     11.28       0.00       0.00       1.92       7.22       0.00       7.22        2.23   246.69   0.640
  sub62                     11.28       0.00       0.00       0.90       7.84       0.00       7.84        2.41   259.66   0.695
  sub63                     11.28       0.00       0.00       3.27       6.33       0.00       6.33        1.92   219.77   0.561
  sub64                     11.28       0.00       0.00       1.69       6.79       0.00       6.79        2.06   204.52   0.602
  sub65                     11.28       0.00       0.00       1.47       6.90       0.00       6.90        2.12   208.50   0.612
  sub66                     11.28       0.00       0.00       3.27       5.83       0.00       5.83        1.79   183.42   0.517
  sub67                     11.28       0.00       0.00       0.90       8.30       0.00       8.30        2.56   301.39   0.736
  sub68                     11.28       0.00       0.00       1.58       7.60       0.00       7.60        2.34   264.96   0.674
  sub69                     11.28       0.00       0.00       1.69       7.90       0.00       7.90        1.85   237.25   0.701
  sub70                     11.28       8.07       0.00       6.54      10.49       0.03      10.52        2.41   252.63   0.544
  sub71                     11.28       0.00       0.00       0.90       7.63       0.00       7.63        1.80   186.96   0.676
  sub72                     11.28       0.00       0.00       0.79       6.02       0.00       6.02        1.23   100.40   0.534
  sub73                     11.28      10.24       0.00       7.30      11.40       0.02      11.42        2.68   238.40   0.531
  sub74                     11.28       0.00       0.00       8.46       2.36       0.00       2.36        0.94   126.51   0.209
  
  
  ******************
  Node Depth Summary
  ******************
  
  ---------------------------------------------------------------------------------
                                 Average  Maximum  Maximum  Time of Max    Reported
                                   Depth    Depth      HGL   Occurrence   Max Depth
  Node                 Type       Meters   Meters   Meters  days hr:min      Meters
  ---------------------------------------------------------------------------------
  WS02001211           JUNCTION     0.63     0.78     5.62     0  02:20        0.78
  WS02001212           JUNCTION     0.36     0.50     5.56     0  02:21        0.50
  WS02001213           JUNCTION     0.60     0.75     5.51     0  02:21        0.75
  WS02003069           JUNCTION     0.43     0.57     5.16     0  02:22        0.57
  WS02003072           JUNCTION     0.50     0.63     5.00     0  02:23        0.63
  WS02003073           JUNCTION     0.30     0.39     4.45     0  02:24        0.39
  WS02003060           JUNCTION     0.38     0.51     5.44     0  02:22        0.51
  WS02003066           JUNCTION     0.24     0.31     5.86     0  02:07        0.31
  WS02003059           JUNCTION     0.66     0.80     5.49     0  02:21        0.80
  WS02003067           JUNCTION     0.58     0.72     6.04     0  02:06        0.72
  WS02004401           JUNCTION     0.68     0.89     6.89     0  02:03        0.89
  WS02004402           JUNCTION     0.71     0.92     6.88     0  02:03        0.92
  WS02004403           JUNCTION     0.73     0.93     6.86     0  02:03        0.93
  WS02004404           JUNCTION     0.81     1.00     6.85     0  02:03        1.00
  WS02004406           JUNCTION     0.81     0.98     6.81     0  02:03        0.98
  WS02004409           JUNCTION     0.50     0.70     6.47     0  02:06        0.70
  WS02004410           JUNCTION     0.52     0.71     6.43     0  02:06        0.71
  WS02004411           JUNCTION     0.53     0.72     6.40     0  02:06        0.72
  WS02004412           JUNCTION     0.55     0.73     6.37     0  02:06        0.72
  WS02004413           JUNCTION     0.71     0.88     6.35     0  02:07        0.88
  WS02004405           JUNCTION     0.81     0.99     6.84     0  02:03        0.99
  WS02006109           JUNCTION     0.77     1.01     7.63     0  02:00        1.01
  WS02006110           JUNCTION     0.76     0.95     7.54     0  02:00        0.95
  WS02006111           JUNCTION     0.22     0.30     7.01     0  02:01        0.30
  WS02006112           JUNCTION     0.85     1.16     7.04     0  02:00        1.14
  WS02006113           JUNCTION     0.35     0.47     7.37     0  02:02        0.47
  WS02006115           JUNCTION     0.58     0.80     6.94     0  02:01        0.80
  WS02006116           JUNCTION     0.66     0.88     6.92     0  02:02        0.88
  WS02006230           JUNCTION     0.73     1.06     7.81     0  02:02        1.06
  WS02006231           JUNCTION     0.49     0.73     7.85     0  02:41        0.73
  WS02006232           JUNCTION     0.62     0.85     7.89     0  02:41        0.85
  WS02006234           JUNCTION     0.54     0.79     7.95     0  02:41        0.78
  WS02006235           JUNCTION     0.57     0.82     7.98     0  02:40        0.81
  WS02006238           JUNCTION     0.59     0.85     7.99     0  02:41        0.84
  WS02006240           JUNCTION     0.48     0.77     8.06     0  02:40        0.77
  WS02006242           JUNCTION     0.53     0.85     8.12     0  02:41        0.83
  WS02006243           JUNCTION     0.41     0.73     8.15     0  02:41        0.72
  WS02006245           JUNCTION     0.39     0.69     8.18     0  02:41        0.69
  WS02006247           JUNCTION     0.41     0.70     8.20     0  02:41        0.69
  WS02006248           JUNCTION     0.35     0.62     8.21     0  02:43        0.62
  WS02006249           JUNCTION     0.38     0.63     8.23     0  02:43        0.63
  WS02006239           JUNCTION     0.54     0.82     8.03     0  02:40        0.82
  WS02006251           JUNCTION     0.37     0.67     8.34     0  02:42        0.67
  WS02006252           JUNCTION     0.33     0.59     8.84     0  02:41        0.59
  WS02006253           JUNCTION     0.40     0.69     8.34     0  02:42        0.69
  WS02006256           JUNCTION     1.04     2.35     9.28     0  00:00        1.20
  WS02004138           JUNCTION     0.14     0.19     7.44     0  05:30        0.19
  WS02004407           JUNCTION     0.23     0.31     6.62     0  02:04        0.31
  WS02006228           JUNCTION     0.77     1.07     7.72     0  02:00        1.06
  WS02006229           JUNCTION     0.74     1.07     7.76     0  02:01        1.07
  WS02006280           JUNCTION     0.07     0.16     8.44     0  02:09        0.16
  WS02006284           JUNCTION     0.37     0.51     8.91     0  02:09        0.51
  WS02006287           JUNCTION     0.10     0.24     9.20     0  02:09        0.24
  WSF200               JUNCTION     0.22     0.33     5.56     0  02:10        0.33
  HS02004901           JUNCTION     0.13     0.25    10.07     0  02:07        0.25
  HS02004881           JUNCTION     0.01     0.03     9.06     0  02:08        0.03
  HS02004876           JUNCTION     0.04     0.11     9.14     0  02:05        0.11
  HS02004870           JUNCTION     0.02     0.05     9.34     0  02:09        0.05
  HS02004862           JUNCTION     0.02     0.06     9.44     0  02:09        0.06
  HS02004856           JUNCTION     0.08     0.11     9.54     0  02:09        0.11
  HS02004852           JUNCTION     0.01     0.04     9.55     0  02:09        0.04
  HS02004848           JUNCTION     0.01     0.04     9.64     0  02:09        0.04
  HS02004842           JUNCTION     0.33     0.37     9.64     0  02:09        0.37
  HS02004837           JUNCTION     0.03     0.06     9.64     0  02:09        0.06
  HS02004830           JUNCTION     0.04     0.07     9.54     0  02:09        0.07
  HS02004824           JUNCTION     0.02     0.05     9.45     0  02:10        0.05
  HS02004817           JUNCTION     0.44     0.56     9.40     0  02:09        0.56
  HS02004807           JUNCTION     0.13     0.23     9.40     0  02:09        0.23
  HS02004802           JUNCTION     0.17     0.26     9.39     0  02:09        0.26
  HS02004799           JUNCTION     0.12     0.28     9.49     0  02:07        0.28
  HS02004792           JUNCTION     0.03     0.11     9.63     0  02:07        0.11
  HS02004788           JUNCTION     0.03     0.08     9.98     0  02:08        0.08
  HS02004785           JUNCTION     0.05     0.15    10.05     0  02:08        0.15
  HS02004777           JUNCTION     0.15     0.27    10.06     0  02:07        0.27
  HS02004770           JUNCTION     0.12     0.24    10.07     0  02:07        0.24
  HS02004480           JUNCTION     0.08     0.22     9.46     0  02:07        0.22
  HS02004479           JUNCTION     0.12     0.26     9.46     0  02:08        0.26
  HS02004478           JUNCTION     0.06     0.15     9.38     0  02:08        0.15
  YS02001745           JUNCTION     0.70     0.87     8.39     0  03:22        0.87
  YS02001748           JUNCTION     1.10     2.12     9.20     0  02:26        1.32
  YS02001751           JUNCTION     1.29     2.01     8.89     0  02:26        1.72
  YS02001754           JUNCTION     1.55     1.94     8.55     0  02:18        1.80
  YS02001762           JUNCTION     1.75     2.03     8.43     0  02:53        2.02
  YS02001765           JUNCTION     1.70     1.97     8.42     0  03:10        1.97
  YS02001767           JUNCTION     1.66     1.93     8.42     0  03:10        1.92
  YS02001770           JUNCTION     1.66     1.91     8.40     0  02:46        1.90
  YS02001774           JUNCTION     1.73     1.98     8.40     0  02:25        1.96
  YS02001779           JUNCTION     1.47     1.68     8.37     0  02:25        1.68
  YS02001882           JUNCTION     0.47     1.19     7.90     0  02:57        1.18
  YS02001884           JUNCTION     0.56     1.29     7.91     0  02:57        1.28
  YS02001759           JUNCTION     1.78     2.07     8.43     0  03:03        2.06
  YS02001887           JUNCTION     0.64     1.37     7.91     0  02:57        1.36
  YS02001890           JUNCTION     0.67     1.40     7.91     0  02:57        1.39
  YS02001898           JUNCTION     0.44     1.15     7.89     0  02:57        1.15
  YS02001901           JUNCTION     0.56     1.28     7.89     0  02:58        1.27
  YS02001904           JUNCTION     0.54     1.25     7.88     0  02:58        1.24
  YS02001907           JUNCTION     0.87     1.59     7.88     0  02:57        1.58
  YS02001910           JUNCTION     0.66     1.38     7.89     0  02:58        1.37
  YS02001915           JUNCTION     0.45     1.17     7.88     0  02:58        1.16
  YS02001918           JUNCTION     0.21     0.82     7.88     0  02:57        0.82
  YS02001619           JUNCTION     1.25     1.61     8.54     0  02:21        1.47
  YS02001629           JUNCTION     1.61     1.85     8.40     0  02:23        1.84
  YS02001641           JUNCTION     1.71     1.97     8.41     0  02:28        1.93
  YS02001644           JUNCTION     1.72     1.92     8.35     0  02:28        1.92
  YS02001652           JUNCTION     1.56     2.16     8.76     0  02:54        2.02
  YS02001655           JUNCTION     1.32     2.20     9.05     0  02:21        1.93
  YS02001920           JUNCTION     0.30     0.89     7.90     0  02:57        0.88
  YS02001923           JUNCTION     0.15     0.63     7.89     0  02:58        0.63
  YS02001926           JUNCTION     0.21     0.44     7.89     0  02:57        0.44
  YS02001929           JUNCTION     0.10     0.18     7.87     0  02:57        0.17
  YS02001658           JUNCTION     1.04     2.30     9.44     0  02:21        1.74
  YS02001661           JUNCTION     0.81     2.46     9.86     0  02:54        1.73
  YS02001664           JUNCTION     0.35     0.57     8.50     0  02:38        0.57
  YS02001622           JUNCTION     1.28     1.62     8.52     0  02:21        1.49
  YS02001633           JUNCTION     1.70     1.99     8.44     0  02:28        1.93
  YS02001649           JUNCTION     1.76     2.05     8.44     0  02:38        2.05
  YS02001757           JUNCTION     1.88     2.17     8.43     0  03:20        2.16
  YS02001895           JUNCTION     0.43     1.15     7.89     0  02:57        1.14
  YS02001625           JUNCTION     1.56     1.78     8.38     0  02:20        1.78
  YS02163301           JUNCTION     1.64     1.92     8.44     0  02:27        1.87
  YS02163601           JUNCTION     1.76     2.04     8.44     0  02:28        1.98
  YS02164001           JUNCTION     1.70     1.98     8.43     0  02:28        1.91
  YS02001647           JUNCTION     1.55     1.80     8.41     0  02:44        1.79
  YSB1154              JUNCTION     0.26     0.41     9.47     0  02:08        0.41
  YSB6556              JUNCTION     0.15     0.30     9.47     0  02:07        0.30
  YSB1174              JUNCTION     0.21     0.36     9.47     0  02:08        0.36
  YSB1171              JUNCTION     0.41     0.56     9.47     0  02:08        0.56
  YS02006553           JUNCTION     0.87     1.59     7.87     0  02:57        1.58
  YS02006561           JUNCTION     0.26     0.80     7.46     0  02:57        0.80
  YS02006556           JUNCTION     0.84     1.53     7.85     0  02:57        1.53
  YS02006558           JUNCTION     0.88     1.57     7.84     0  02:57        1.56
  YS02001783           JUNCTION     0.51     1.83     7.97     0  02:15        1.23
  YS02001784           JUNCTION     0.54     1.47     7.54     0  02:15        1.20
  YS02001786           JUNCTION     0.50     1.60     7.63     0  02:15        1.10
  YS02001788           JUNCTION     0.45     1.56     7.54     0  02:15        1.00
  YS02001790           JUNCTION     0.60     1.96     7.60     0  02:14        1.21
  YS02001791           JUNCTION     0.61     1.56     7.03     0  02:14        1.24
  YS02001793           JUNCTION     0.89     2.17     7.00     0  02:13        1.79
  WS02004139           JUNCTION     0.57     0.73     5.64     0  02:20        0.73
  WSC                  OUTFALL      0.30     0.39     1.06     0  02:24        0.39
  3                    OUTFALL      0.09     0.23     6.23     0  00:00        0.20
  4                    OUTFALL      0.01     0.13     7.13     0  02:43        0.13
  5                    OUTFALL      0.00     0.00     5.00     0  00:00        0.00
  JK-storage           STORAGE      3.31     5.80     6.60     0  02:15        5.80
  CC-storage           STORAGE      1.11     1.38     8.38     0  03:24        1.38
  XR-storage           STORAGE      7.39     7.72     5.72     0  02:16        7.72
  
  
  *******************
  Node Inflow Summary
  *******************
  
  -------------------------------------------------------------------------------------------------
                                  Maximum  Maximum                  Lateral       Total        Flow
                                  Lateral    Total  Time of Max      Inflow      Inflow     Balance
                                   Inflow   Inflow   Occurrence      Volume      Volume       Error
  Node                 Type           LPS      LPS  days hr:min    10^6 ltr    10^6 ltr     Percent
  -------------------------------------------------------------------------------------------------
  WS02001211           JUNCTION      7.35   381.88     0  02:20       0.207        6.14       0.484
  WS02001212           JUNCTION      0.00   378.38     0  02:21           0        6.11       0.269
  WS02001213           JUNCTION      0.00   377.38     0  02:21           0        6.09       0.356
  WS02003069           JUNCTION      0.32   911.00     0  02:22     0.00902        14.4       0.194
  WS02003072           JUNCTION      0.00   910.59     0  02:23           0        14.3       0.242
  WS02003073           JUNCTION      1.82   912.10     0  02:23      0.0514        14.3       0.270
  WS02003060           JUNCTION     16.53   910.87     0  02:22       0.466        14.4       0.185
  WS02003066           JUNCTION      0.00   588.46     0  02:06           0        7.88       0.059
  WS02003059           JUNCTION      0.00   377.50     0  02:21           0        6.07       0.562
  WS02003067           JUNCTION      0.00   588.45     0  02:07           0        7.89       0.121
  WS02004401           JUNCTION      0.00   591.86     0  02:02           0        8.13       0.271
  WS02004402           JUNCTION      0.00   591.00     0  02:03           0         8.1       0.255
  WS02004403           JUNCTION      0.00   590.97     0  02:03           0        8.08       0.232
  WS02004404           JUNCTION      0.16   590.01     0  02:03     0.00457        8.07       0.173
  WS02004406           JUNCTION      0.00   590.96     0  02:03           0        8.04       0.422
  WS02004409           JUNCTION      0.00   589.30     0  02:04           0        7.99       0.212
  WS02004410           JUNCTION      0.00   588.93     0  02:04           0        7.98       0.240
  WS02004411           JUNCTION      0.00   588.69     0  02:05           0        7.96       0.245
  WS02004412           JUNCTION      0.00   588.52     0  02:05           0        7.94       0.264
  WS02004413           JUNCTION      0.00   588.59     0  02:05           0        7.92       0.391
  WS02004405           JUNCTION      0.04   590.34     0  02:03     0.00107        8.06       0.262
  WS02006109           JUNCTION      1.23   580.36     0  02:02      0.0347         8.2       0.269
  WS02006110           JUNCTION      0.00   580.33     0  02:02           0        8.17       0.248
  WS02006111           JUNCTION      0.00   606.43     0  02:02           0        8.14       0.057
  WS02006112           JUNCTION     10.18   597.62     0  02:01      0.0577         8.2       0.350
  WS02006113           JUNCTION      0.00   581.21     0  02:01           0        8.15       0.123
  WS02006115           JUNCTION      0.00   607.43     0  02:01           0        8.17       0.260
  WS02006116           JUNCTION      0.00   594.21     0  02:01           0        8.15       0.249
  WS02006230           JUNCTION     10.28   395.60     0  06:13        0.29        6.45       0.219
  WS02006231           JUNCTION      0.00   386.98     0  06:12           0        6.17       0.175
  WS02006232           JUNCTION      0.00   387.02     0  06:12           0        6.19       0.269
  WS02006234           JUNCTION      0.00   388.10     0  06:11           0         6.2       0.136
  WS02006235           JUNCTION      0.00   388.46     0  06:12           0        6.23       0.177
  WS02006238           JUNCTION      0.00   311.52     0  07:12           0         4.1       0.198
  WS02006240           JUNCTION      0.00   314.52     0  07:11           0         4.1       0.299
  WS02006242           JUNCTION      0.00   317.50     0  07:11           0        4.11       0.362
  WS02006243           JUNCTION      0.00   322.41     0  07:10           0         4.1      -0.048
  WS02006245           JUNCTION      0.00   326.25     0  06:50           0        4.11       0.279
  WS02006247           JUNCTION      0.00   334.52     0  02:39           0        4.12       0.169
  WS02006248           JUNCTION      0.00   345.03     0  02:40           0        4.12       0.054
  WS02006249           JUNCTION      0.00   444.48     0  02:43           0         4.4       0.295
  WS02006239           JUNCTION      0.00   312.07     0  07:12           0         4.1       0.288
  WS02006251           JUNCTION      0.08   444.49     0  02:42     0.00217        4.43       0.194
  WS02006252           JUNCTION      0.00   400.00     0  02:40           0        4.07       0.010
  WS02006253           JUNCTION      1.44    57.92     0  02:08     0.00747       0.355       1.130
  WS02006256           JUNCTION      0.00   600.00     0  00:00           0         5.5       0.042
  WS02004138           JUNCTION      0.00   379.97     0  05:30           0        5.96       0.073
  WS02004407           JUNCTION      0.00   589.83     0  02:04           0           8       0.095
  WS02006228           JUNCTION      0.00   579.13     0  02:02           0        8.18       0.193
  WS02006229           JUNCTION      0.00   578.90     0  02:02           0        8.19       0.152
  WS02006280           JUNCTION      0.00   274.19     0  02:09           0        1.75       0.004
  WS02006284           JUNCTION      0.10   274.19     0  02:09      0.0027        1.75       0.059
  WS02006287           JUNCTION      0.00   274.08     0  02:09           0        1.75       0.041
  WSF200               JUNCTION      0.00   588.49     0  02:06           0        7.87       0.057
  HS02004901           JUNCTION     12.34    12.34     0  01:36      0.0695      0.0697       2.591
  HS02004881           JUNCTION      5.34    56.62     0  02:08      0.0303       0.326       0.077
  HS02004876           JUNCTION     10.11    51.23     0  02:08      0.0584       0.296       0.183
  HS02004870           JUNCTION     10.08    41.18     0  02:08      0.0575       0.238       0.045
  HS02004862           JUNCTION      9.99    31.21     0  02:08      0.0634        0.18       0.095
  HS02004856           JUNCTION      7.58    21.25     0  02:08      0.0432       0.118       1.232
  HS02004852           JUNCTION      0.00    13.78     0  02:09           0      0.0753       0.072
  HS02004848           JUNCTION     22.44    22.44     0  02:09       0.139       0.139       0.032
  HS02004842           JUNCTION      0.00     8.71     0  02:17           0      0.0763      20.532
  HS02004837           JUNCTION     23.78    32.32     0  02:08       0.279       0.343       0.238
  HS02004830           JUNCTION      0.15    32.46     0  02:09     0.00423       0.333       0.372
  HS02004824           JUNCTION     27.40    59.85     0  02:10       0.181       0.513       0.105
  HS02004817           JUNCTION      0.60    60.44     0  02:10      0.0169       0.529       3.252
  HS02004807           JUNCTION     18.56    78.63     0  02:09       0.106       0.618       0.704
  HS02004802           JUNCTION      0.00    78.69     0  02:10           0       0.615       0.645
  HS02004799           JUNCTION     14.98   164.66     0  02:07      0.0856       0.976       0.270
  HS02004792           JUNCTION     62.86   149.73     0  02:07       0.364       0.891       0.045
  HS02004788           JUNCTION     22.43    86.95     0  02:07       0.166       0.528       0.073
  HS02004785           JUNCTION      0.15    64.59     0  02:07     0.00423       0.363       0.135
  HS02004777           JUNCTION      0.03    64.48     0  02:07    0.000846       0.364       1.448
  HS02004770           JUNCTION     52.29    64.50     0  02:06       0.297       0.365       0.854
  HS02004480           JUNCTION      0.00   195.78     0  02:07           0        1.15       0.099
  HS02004479           JUNCTION      0.00    31.20     0  02:09           0       0.188       0.391
  HS02004478           JUNCTION      0.00   274.07     0  02:08           0        1.75       0.020
  YS02001745           JUNCTION    214.32   397.53     0  02:24        2.14        2.17       0.471
  YS02001748           JUNCTION      0.04   567.84     0  02:25     0.00127        2.16       1.057
  YS02001751           JUNCTION      0.01   350.57     0  02:17     0.00031        2.11       1.114
  YS02001754           JUNCTION      0.26   233.15     0  02:25     0.00733         2.1       1.197
  YS02001762           JUNCTION      0.00   256.57     0  02:41           0        1.68       1.272
  YS02001765           JUNCTION      0.00   256.19     0  02:41           0        1.68       1.467
  YS02001767           JUNCTION      0.54   255.93     0  02:44      0.0151         1.7       2.154
  YS02001770           JUNCTION    259.81   259.81     0  02:54        2.41        2.44       1.309
  YS02001774           JUNCTION      0.00   223.76     0  03:28           0       0.756       3.425
  YS02001779           JUNCTION      0.01   224.29     0  03:28    0.000141       0.725       2.135
  YS02001882           JUNCTION      0.00    23.58     0  02:17           0      0.0161      14.586
  YS02001884           JUNCTION      0.00    42.41     0  02:17           0      0.0536      12.068
  YS02001759           JUNCTION    246.73   499.87     0  02:41        2.23        3.85       0.595
  YS02001887           JUNCTION    301.84   314.70     0  02:18        2.57        2.61       0.312
  YS02001890           JUNCTION      0.00   302.88     0  02:42           0        2.56       0.347
  YS02001898           JUNCTION      0.00   303.94     0  02:43           0        2.54       0.105
  YS02001901           JUNCTION      0.00   303.98     0  02:52           0        2.54       0.262
  YS02001904           JUNCTION      0.00   304.17     0  02:52           0        2.54       0.235
  YS02001907           JUNCTION      0.00   589.91     0  03:02           0        5.63       0.416
  YS02001910           JUNCTION      0.00   321.95     0  03:06           0         3.1       0.367
  YS02001915           JUNCTION    186.98   321.15     0  03:06         1.8         3.1       0.181
  YS02001918           JUNCTION      0.00   157.29     0  03:06           0         1.3       0.134
  YS02001619           JUNCTION    183.42   183.42     0  02:55        1.79        1.79       0.676
  YS02001629           JUNCTION      0.00   179.96     0  02:23           0        1.66       1.746
  YS02001641           JUNCTION      0.00   378.45     0  02:23           0        3.68       0.568
  YS02001644           JUNCTION    204.56   880.34     0  03:08        2.06         7.8       0.334
  YS02001652           JUNCTION      0.00   272.61     0  02:42           0        1.87       1.246
  YS02001655           JUNCTION      0.15   379.91     0  02:08     0.00434        1.89       1.347
  YS02001920           JUNCTION      2.87   147.56     0  03:04      0.0809        1.31       0.211
  YS02001923           JUNCTION      0.04   113.97     0  03:02     0.00106        1.23       0.048
  YS02001926           JUNCTION      0.05   104.21     0  03:00     0.00147        1.23       0.254
  YS02001929           JUNCTION    100.40   100.40     0  03:01        1.23        1.23       0.039
  YS02001658           JUNCTION      0.00   622.61     0  02:21           0        1.93       1.140
  YS02001661           JUNCTION      0.00   624.89     0  02:39           0        2.69      -0.106
  YS02001664           JUNCTION    219.77   378.72     0  02:37        1.91        2.68       0.179
  YS02001622           JUNCTION      0.00   183.63     0  02:55           0        1.78       1.810
  YS02001633           JUNCTION    208.70   378.20     0  02:23        2.13        3.74       0.856
  YS02001649           JUNCTION      0.00   782.24     0  02:36           0        5.16       0.714
  YS02001757           JUNCTION      0.00  1451.29     0  02:36           0        8.91       1.045
  YS02001895           JUNCTION      0.00   304.88     0  02:18           0        2.55       0.187
  YS02001625           JUNCTION      0.00   183.50     0  02:54           0        1.74       2.272
  YS02163301           JUNCTION      0.00   203.02     0  02:20           0        1.64       1.466
  YS02163601           JUNCTION      0.11   378.17     0  02:23      0.0031         3.7       0.814
  YS02164001           JUNCTION      0.00   378.56     0  02:23           0        3.68       0.538
  YS02001647           JUNCTION      0.00   561.78     0  02:37           0        4.18       0.680
  YSB1154              JUNCTION     18.00    18.00     0  02:07       0.104       0.105       1.400
  YSB6556              JUNCTION      0.00    17.99     0  02:06           0       0.105       1.199
  YSB1174              JUNCTION     13.79    13.79     0  01:35      0.0753      0.0758       1.721
  YSB1171              JUNCTION      0.00    31.24     0  02:07           0       0.187       3.509
  YS02006553           JUNCTION      0.00   590.04     0  03:02           0        5.62       0.269
  YS02006561           JUNCTION      0.00   844.03     0  02:57           0        7.92       0.005
  YS02006556           JUNCTION      0.00   589.95     0  03:02           0        5.62       0.197
  YS02006558           JUNCTION    265.84   844.45     0  02:57        2.36        7.95       0.068
  YS02001783           JUNCTION      0.00   841.52     0  02:59           0        7.92       0.026
  YS02001784           JUNCTION      1.06   842.58     0  02:57      0.0299        7.95       0.046
  YS02001786           JUNCTION      0.06   842.55     0  02:57     0.00159        7.95       0.039
  YS02001788           JUNCTION      0.07   842.63     0  02:57       0.002        7.94       0.025
  YS02001790           JUNCTION      0.15   842.77     0  02:58     0.00437        7.95       0.026
  YS02001791           JUNCTION      0.00   842.78     0  02:59           0        7.95       0.014
  YS02001793           JUNCTION      0.00   842.88     0  02:57           0        7.95      -0.001
  WS02004139           JUNCTION      0.32   379.54     0  05:30     0.00905        5.96       0.556
  WSC                  OUTFALL       0.00   911.62     0  02:24           0        14.3       0.000
  3                    OUTFALL       0.00   597.65     0  00:00           0        3.34       0.000
  4                    OUTFALL       0.00   166.99     0  02:43           0       0.263       0.000
  5                    OUTFALL       0.00     0.00     0  00:00           0           0       0.000 ltr
  JK-storage           STORAGE       0.00   899.21     0  02:12           0         8.1      -5.499
  CC-storage           STORAGE       0.00  1451.30     0  02:36           0        7.57       0.778
  XR-storage           STORAGE     549.18   549.18     0  02:55        9.26        9.86      -0.000
  
  
  **********************
  Node Surcharge Summary
  **********************
  
  Surcharging occurs when water rises above the top of the highest conduit.
  ---------------------------------------------------------------------
                                               Max. Height   Min. Depth
                                   Hours       Above Crown    Below Rim
  Node                 Type      Surcharged         Meters       Meters
  ---------------------------------------------------------------------
  WS02006109           JUNCTION        1.86          0.195        1.625
  WS02006110           JUNCTION        0.81          0.043        1.807
  WS02006112           JUNCTION        1.38          0.156        1.524
  WS02006231           JUNCTION        0.17          0.016        1.514
  WS02006232           JUNCTION        1.82          0.154        1.326
  WS02006234           JUNCTION        0.61          0.070        1.170
  WS02006235           JUNCTION        0.95          0.109        1.181
  WS02006238           JUNCTION        1.28          0.127        1.303
  WS02006240           JUNCTION        0.42          0.059        1.331
  WS02006242           JUNCTION        0.80          0.120        0.700
  WS02006243           JUNCTION        0.05          0.023        0.747
  WS02006239           JUNCTION        0.63          0.084        1.206
  WS02006252           JUNCTION        1.31          0.193        0.907
  WS02006256           JUNCTION        0.01          1.050        0.000
  WS02006228           JUNCTION        1.77          0.241        1.959
  YS02001748           JUNCTION        5.29          1.041        0.149
  YS02001751           JUNCTION        5.52          1.009        0.191
  YS02001754           JUNCTION        5.73          0.895        0.255
  YS02001762           JUNCTION        5.96          1.030        0.120
  YS02001765           JUNCTION        5.93          0.972        0.128
  YS02001767           JUNCTION        5.92          0.931        0.099
  YS02001770           JUNCTION        5.89          0.877        0.043
  YS02001774           JUNCTION        5.95          0.975        0.075
  YS02001779           JUNCTION        5.72          0.680        0.000
  YS02001882           JUNCTION        0.48          0.189        0.641
  YS02001884           JUNCTION        0.55          0.228        0.642
  YS02001759           JUNCTION        5.98          1.066        0.144
  YS02001887           JUNCTION        0.71          0.322        0.628
  YS02001890           JUNCTION        0.76          0.354        0.406
  YS02001898           JUNCTION        0.37          0.123        0.617
  YS02001901           JUNCTION        0.65          0.281        0.589
  YS02001904           JUNCTION        0.61          0.248        0.602
  YS02001907           JUNCTION        1.44          0.581        0.369
  YS02001910           JUNCTION        0.82          0.378        0.722
  YS02001915           JUNCTION        0.45          0.165        0.835
  YS02001619           JUNCTION        5.51          0.610        0.000
  YS02001629           JUNCTION        5.54          0.470        0.000
  YS02001641           JUNCTION        5.95          0.970        0.130
  YS02001644           JUNCTION        5.95          0.920        0.000
  YS02001652           JUNCTION        5.75          1.130        0.000
  YS02001655           JUNCTION        5.55          1.200        0.000
  YS02001658           JUNCTION        5.33          1.300        0.000
  YS02001661           JUNCTION        0.22          1.390        0.000
  YS02001622           JUNCTION        5.57          0.620        0.000
  YS02001633           JUNCTION        5.93          0.968        0.092
  YS02001649           JUNCTION        5.96          1.050        0.000
  YS02001757           JUNCTION        6.04          1.171        0.039
  YS02001895           JUNCTION        0.41          0.148        0.602
  YS02001625           JUNCTION        5.77          0.780        0.000
  YS02163301           JUNCTION        5.91          0.923        0.107
  YS02163601           JUNCTION        5.96          1.042        0.038
  YS02164001           JUNCTION        5.94          0.976        0.124
  YS02001647           JUNCTION        5.75          0.805        0.095
  YS02006553           JUNCTION        1.51          0.587        0.603
  YS02006561           JUNCTION        0.01          0.004        1.146
  YS02006556           JUNCTION        1.12          0.494        0.856
  YS02006558           JUNCTION        1.06          0.472        0.928
  YS02001783           JUNCTION        1.24          1.030        0.570
  YS02001784           JUNCTION        1.28          0.669        0.821
  YS02001786           JUNCTION        1.25          0.799        0.631
  YS02001788           JUNCTION        1.23          0.758        0.722
  YS02001790           JUNCTION        2.92          1.157        0.000
  YS02001791           JUNCTION        3.07          0.764        1.156
  YS02001793           JUNCTION        3.13          1.170        1.430
  
  
  *********************
  Node Flooding Summary
  *********************
  
  Flooding refers to all water that overflows a node, whether it ponds or not.
  --------------------------------------------------------------------------
                                                             Total   Maximum
                                 Maximum   Time of Max       Flood    Ponded
                        Hours       Rate    Occurrence      Volume     Depth
  Node                 Flooded       LPS   days hr:min    10^6 ltr    Meters
  --------------------------------------------------------------------------
  WS02006256              0.01    406.11      0  00:00       0.001     0.000
  YS02001779              2.44    224.18      0  03:28       0.705     0.000
  YS02001619              0.01     33.45      0  02:24       0.000     0.000
  YS02001629              0.01     31.16      0  02:24       0.000     0.000
  YS02001644              4.01    880.20      0  03:08       5.662     0.000
  YS02001652              0.01     15.31      0  02:54       0.000     0.000
  YS02001655              0.01     36.89      0  02:21       0.000     0.000
  YS02001658              0.01    334.13      0  02:21       0.000     0.000
  YS02001661              0.01    145.84      0  02:54       0.000     0.000
  YS02001622              0.01     35.95      0  02:22       0.000     0.000
  YS02001649              0.07     44.46      0  02:46       0.004     0.000
  YS02001625              0.62     37.12      0  02:55       0.049     0.000
  YS02001790              0.01    145.86      0  02:14       0.000     0.000
  JK-storage              2.54    841.54      0  03:00       3.071     0.000
  XR-storage              4.63    543.76      0  02:50       2.981     0.000
  
  
  **********************
  Storage Volume Summary
  **********************
  
  --------------------------------------------------------------------------------------------------
                         Average     Avg  Evap Exfil       Maximum     Max    Time of Max    Maximum
                          Volume    Pcnt  Pcnt  Pcnt        Volume    Pcnt     Occurrence    Outflow
  Storage Unit           1000 m3    Full  Loss  Loss       1000 m3    Full    days hr:min        LPS
  --------------------------------------------------------------------------------------------------
  JK-storage               0.166      57     0     0         0.291     100       0  02:15     600.00
  CC-storage               3.089      20     0     0         3.849      25       0  03:24     400.00
  XR-storage               0.887      96     0     0         0.926     100       0  02:16     379.97
  
  
  ***********************
  Outfall Loading Summary
  ***********************
  
  -----------------------------------------------------------
                         Flow       Avg       Max       Total
                         Freq      Flow      Flow      Volume
  Outfall Node           Pcnt       LPS       LPS    10^6 ltr
  -----------------------------------------------------------
  WSC                   99.99    564.31    911.62      14.302
  3                     84.07    177.60    597.65       3.337
  4                     24.53     48.55    166.99       0.263
  5                      0.00      0.00      0.00       0.000
  -----------------------------------------------------------
  System                52.15    790.46   1327.23      17.902
  
  
  ********************
  Link Flow Summary
  ********************
  
  -----------------------------------------------------------------------------
                                 Maximum  Time of Max   Maximum    Max/    Max/
                                  |Flow|   Occurrence   |Veloc|    Full    Full
  Link                 Type          LPS  days hr:min     m/sec    Flow   Depth
  -----------------------------------------------------------------------------
  WS02003066WSF200     CONDUIT    588.49     0  02:06      2.86    0.10    0.24
  WS02006287WS02006284 CONDUIT    274.09     0  02:09      1.78    0.13    0.25
  WS02006284WS02006280 CONDUIT    274.19     0  02:09      2.02    0.11    0.23
  WS02006280WS02006229 CONDUIT    274.19     0  02:09      3.26    0.06    0.16
  WS02006229WS02006228 CONDUIT    579.13     0  02:02      1.15    1.92    1.00
  WS02006256WS02006235 CONDUIT    177.52     0  00:01      2.73    1.88    1.00
  WS02006253WS02006251 CONDUIT     68.05     0  02:08      0.52    0.20    0.97
  WS02006252WS02006251 CONDUIT    400.33     0  02:44      3.19    1.47    1.00
  WS02006251WS02006249 CONDUIT    444.48     0  02:43      1.21    1.28    0.93
  WS02006249WS02006248 CONDUIT    345.03     0  02:40      1.10    1.89    0.88
  WS02006248WS02006247 CONDUIT    334.52     0  02:39      1.06    0.73    0.93
  WS02006247WS02006245 CONDUIT    326.25     0  06:50      1.02    2.59    0.98
  WS02006245WS02006243 CONDUIT    322.41     0  07:10      1.10    0.95    1.00
  WS02006243WS02006242 CONDUIT    317.50     0  07:11      0.89    0.68    1.00
  WS02006242WS02006240 CONDUIT    314.52     0  07:11      0.83    1.25    1.00
  WS02006240WS02006239 CONDUIT    312.07     0  07:12      0.87    0.98    1.00
  WS02006239WS02006238 CONDUIT    311.52     0  07:12      0.84    1.00    1.00
  WS02006238WS02006235 CONDUIT    311.61     0  07:12      1.32    0.70    1.00
  WS02006235WS02006234 CONDUIT    388.10     0  06:11      1.02    4.09    1.00
  WS02006234WS02006232 CONDUIT    387.02     0  06:12      1.17    0.78    1.00
  WS02006232WS02006231 CONDUIT    386.98     0  06:12      1.06    0.81    1.00
  WS02006231WS02006230 CONDUIT    385.33     0  06:13      1.33    5.84    0.99
  WS02006230WS02006229 CONDUIT    395.40     0  06:13      1.03    8.80    1.00
  WS02006228WS02006109 CONDUIT    579.13     0  02:02      1.15    2.53    1.00
  WS02006116WS02004401 CONDUIT    591.86     0  02:02      0.81    0.82    0.89
  WS02006115WS02006116 CONDUIT    594.21     0  02:01      0.87    0.76    0.81
  WS02006113WS02006111 CONDUIT    606.43     0  02:02      2.53    0.73    0.48
  WS02006112WS02006115 CONDUIT    607.43     0  02:01      0.82    0.36    0.90
  WS02006111WS02006112 CONDUIT    587.51     0  02:01      1.61    0.28    0.68
  WS02006110WS02006113 CONDUIT    581.21     0  02:01      1.36    0.53    0.80
  WS02006109WS02006110 CONDUIT    580.33     0  02:02      1.15    1.12    1.00
  WS02004411WS02004412 CONDUIT    588.52     0  02:05      0.97    0.84    0.72
  WS02004401WS02004402 CONDUIT    591.00     0  02:03      0.79    0.71    0.91
  WS02004413WS02003067 CONDUIT    588.45     0  02:07      1.17    0.25    0.61
  WS02004412WS02004413 CONDUIT    588.59     0  02:05      0.87    0.39    0.80
  WS02004410WS02004411 CONDUIT    588.69     0  02:05      0.98    0.80    0.72
  WS02004409WS02004410 CONDUIT    588.93     0  02:04      0.99    0.76    0.71
  WS02004407WS02004409 CONDUIT    589.30     0  02:04      1.49    0.21    0.51
  WS02004406WS02004407 CONDUIT    589.83     0  02:04      1.10    0.26    0.65
  WS02004405WS02004406 CONDUIT    590.96     0  02:03      0.75    1.17    0.99
  WS02004404WS02004405 CONDUIT    590.30     0  02:03      0.75    5.78    0.99
  WS02004403WS02004404 CONDUIT    589.85     0  02:03      0.76    0.43    0.96
  WS02004402WS02004403 CONDUIT    590.97     0  02:03      0.78    0.85    0.92
  WS02004139WS02001211 CONDUIT    374.54     0  02:20      0.80    0.47    0.59
  WS02004138WS02004139 CONDUIT    379.22     0  05:30      3.34    0.08    0.43
  WS02003067WS02003066 CONDUIT    588.46     0  02:06      1.27    0.19    0.43
  WS02001213WS02003059 CONDUIT    377.50     0  02:21      0.80    0.62    0.77
  WS02001212WS02001213 CONDUIT    377.38     0  02:21      1.21    0.58    0.46
  WS02001211WS02001212 CONDUIT    378.38     0  02:21      0.75    0.29    0.64
  WS02003072WS02003073 CONDUIT    910.28     0  02:23      1.71    1.97    0.48
  WS02003069WS02003072 CONDUIT    910.59     0  02:23      1.61    0.44    0.50
  WS02003060WS02003069 CONDUIT    910.68     0  02:22      1.85    0.36    0.45
  WS02003059WS02003060 CONDUIT    377.69     0  02:22      0.82    0.25    0.65
  HS02004901HS02004770 CONDUIT     12.22     0  02:07      0.05    0.05    0.35
  HS02004876HS02004881 CONDUIT     51.32     0  02:08      0.76    0.55    0.10
  HS02004870HS02004876 CONDUIT     41.17     0  02:09      0.52    0.03    0.11
  HS02004842HS02004848 CONDUIT      8.71     0  02:17      0.04    0.01    0.29
  HS02004837HS02004842 CONDUIT      8.85     0  02:14      0.41    0.01    0.30
  HS02004830HS02004837 CONDUIT     32.31     0  02:09      0.50    0.03    0.09
  HS02004824HS02004830 CONDUIT     32.45     0  02:09      0.53    0.04    0.09
  HS02004817HS02004824 CONDUIT     59.84     0  02:10      0.20    0.03    0.43
  HS02004770HS02004777 CONDUIT     64.45     0  02:07      0.26    0.12    0.36
  HS02004799HS02004480 CONDUIT    164.63     0  02:07      0.67    0.21    0.35
  HS02004792HS02004799 CONDUIT    149.69     0  02:07      0.76    0.09    0.28
  HS02004788HS02004792 CONDUIT     86.94     0  02:08      0.90    0.06    0.14
  HS02004785HS02004788 CONDUIT     64.57     0  02:08      0.57    0.49    0.16
  HS02004777HS02004785 CONDUIT     64.44     0  02:07      0.31    0.08    0.29
  HS02004480HS02004478 CONDUIT    195.75     0  02:08      1.06    0.82    0.26
  HS02004479HS02004480 CONDUIT     31.31     0  02:10      0.28    0.03    0.34
  HS02004862HS02004870 CONDUIT     31.19     0  02:09      0.56    0.03    0.08
  HS02004848HS02004852 CONDUIT     13.78     0  02:09      0.38    0.02    0.05
  HS02004856HS02004862 CONDUIT     21.24     0  02:09      0.41    0.02    0.07
  HS02004852HS02004856 CONDUIT     13.76     0  02:09      0.18    0.02    0.11
  HS02004802HS02004478 CONDUIT     78.88     0  02:11      0.38    0.07    0.29
  HS02004478WS02006287 CONDUIT    274.08     0  02:09      1.48    0.08    0.21
  HS02004817HS02004807 CONDUIT     60.62     0  02:11      0.15    0.04    0.56
  HS02004807HS02004802 CONDUIT     78.69     0  02:10      0.32    0.15    0.35
  YS02001759YS02001757 CONDUIT    499.86     0  02:43      0.64    0.36    1.00
  YS02001762YS02001759 CONDUIT    257.31     0  02:30      0.33    0.30    1.00
  YS02001765YS02001762 CONDUIT    256.57     0  02:41      0.33    0.24    1.00
  YS02001770YS02001767 CONDUIT    255.39     0  02:44      0.38    1.01    1.00
  YS02001774YS02001770 CONDUIT    223.76     0  03:28      0.28    0.14    1.00
  YS02001779YS02001774 CONDUIT    224.29     0  03:28      0.29    0.11    1.00
  YS02001649YS02001757 CONDUIT    782.76     0  02:36      1.00    0.48    1.00
  YS02001767YS02001765 CONDUIT    256.19     0  02:41      0.35    0.32    1.00
  YS02006561YS02001783 CONDUIT    841.52     0  02:59      2.15    0.44    1.00
  YS02001783YS02001784 CONDUIT    841.52     0  02:57      1.67    1.16    1.00
  YS02001784YS02001785 CONDUIT    842.49     0  02:57      1.74    1.96    1.00
  YS02001788YS02001790 CONDUIT    842.62     0  02:58      2.27    0.62    1.00
  YS02001790YS02001791 CONDUIT    842.78     0  02:59      2.75    0.92    1.00
  YS02001791YS02001793 CONDUIT    842.88     0  02:57      5.54    0.36    1.00
  YS02001910YS02001907 CONDUIT    321.85     0  03:06      0.49    0.18    1.00
  YS02001786YS02001788 CONDUIT    842.56     0  02:57      2.18    1.62    1.00
  YS02001915YS02001910 CONDUIT    321.95     0  03:06      0.56    0.16    1.00
  YS02001918YS02001915 CONDUIT    151.12     0  03:06      0.44    0.08    0.91
  YS02001923YS02001920 CONDUIT    144.69     0  03:04      0.66    0.06    0.75
  YS02001926YS02001923 CONDUIT    113.94     0  03:02      0.76    0.16    0.43
  YS02001929YS02001926 CONDUIT    104.16     0  03:00      0.81    0.05    0.31
  YS02001920YS02001918 CONDUIT    157.29     0  03:06      0.65    0.15    0.85
  YS02001629YS02163301 CONDUIT    203.02     0  02:20      0.26    0.25    1.00
  YS02001619YS02001622 CONDUIT    183.63     0  02:55      0.67    0.27    1.00
  YS02001622YS02001625 CONDUIT    183.50     0  02:54      0.32    0.10    1.00
  YS02001625YS02001629 CONDUIT    179.96     0  02:23      0.27    0.09    1.00
  YS02163301YS02001633 CONDUIT    203.18     0  02:20      0.26    0.19    1.00
  YS02163601YS02164001 CONDUIT    378.56     0  02:23      0.48    0.34    1.00
  YS02164001YS02001641 CONDUIT    378.45     0  02:23      0.48    0.52    1.00
  YS02001641YS02001644 CONDUIT    377.95     0  02:23      0.48    1.22    1.00
  YS02001647YS02001649 CONDUIT    561.94     0  02:37      0.72    0.30    1.00
  YS02006553YS02006556 CONDUIT    589.95     0  03:02      0.75    0.50    1.00
  YS02006556YS02006558 CONDUIT    590.15     0  03:02      0.75    0.47    1.00
  YSB6556YSB1171       CONDUIT     18.03     0  02:09      0.07    0.02    0.61
  YS02001907YS02006553 CONDUIT    590.04     0  03:02      0.66    0.69    1.00
  YS02006558YS02006561 CONDUIT    844.03     0  02:57      3.15    1.87    1.00
  YS02001633YS02163601 CONDUIT    378.06     0  02:23      0.48    0.40    1.00
  YS02001644YS02001647 CONDUIT    561.78     0  02:37      0.72    0.33    1.00
  YS02001745YS02001748 CONDUIT    567.79     0  02:25      1.53    0.22    0.94
  YS02001748YS02001751 CONDUIT    350.56     0  02:17      1.14    0.18    1.00
  YS02001751YS02001754 CONDUIT    232.89     0  02:25      0.97    0.11    1.00
  YS02001754YS02001757 CONDUIT    233.48     0  02:25      0.33    0.09    1.00
  YS02001882YS02001884 CONDUIT     24.19     0  02:18      0.12    0.03    1.00
  YS02001884YS02001887 CONDUIT     42.41     0  02:17      0.09    0.06    1.00
  YS02001890YS02001895 CONDUIT    304.88     0  02:18      0.47    0.14    1.00
  YS02001895YS02001898 CONDUIT    303.94     0  02:43      0.57    0.53    1.00
  YS02001898YS02001901 CONDUIT    303.98     0  02:52      0.50    0.20    1.00
  YS02001901YS02001904 CONDUIT    304.17     0  02:52      0.45    0.47    1.00
  YS02001904YS02001907 CONDUIT    304.43     0  02:52      0.41    0.11    1.00
  YS02001887YS02001890 CONDUIT    302.88     0  02:42      0.41    0.52    1.00
  YS02001652YS02001649 CONDUIT    272.42     0  02:42      0.58    0.14    1.00
  YS02001655YS02001652 CONDUIT    272.61     0  02:42      1.05    0.13    1.00
  YS02001658YS02001655 CONDUIT    379.76     0  02:08      1.31    0.16    1.00
  YS02001661YS02001658 CONDUIT    622.61     0  02:21      1.61    0.24    1.00
  YS02001664YS02001661 CONDUIT    624.89     0  02:39      1.53    0.20    0.72
  YSB1154YSB6556       CONDUIT     17.99     0  02:06      0.16    0.03    0.50
  YSB1174YSB1171       CONDUIT     13.75     0  01:36      0.06    0.02    0.62
  YSB1171HS02004479    CONDUIT     31.20     0  02:09      0.54    0.02    0.48
  HS02004881HS02006253 CONDUIT     56.61     0  02:08      1.92    0.01    0.27
  YS02001793JiankangQianchi CONDUIT    899.21     0  02:12     13.02    0.07    1.00
  YS02001757CaochengTiaoxuchi CONDUIT   1451.30     0  02:36      2.30    0.64    1.00
  WSF200WS02003060     CONDUIT    588.37     0  02:06      2.05    0.13    0.34
  1                    CONDUIT    911.62     0  02:24      3.24    0.32    0.39
  2                    CONDUIT    166.99     0  02:43      5.58    0.40    0.44
  3                    CONDUIT    597.65     0  00:00     10.05    0.95    0.86
  4                    CONDUIT      0.00     0  00:00      0.00    0.00    0.00
  CC-Pump-1            PUMP       200.00     0  01:50              1.00
  CC-Pump-2            PUMP       200.00     0  02:40              1.00
  JK-Pump-1            PUMP       300.00     0  00:00              1.00
  JK-Pump-2            PUMP       300.00     0  00:00              1.00
  XR-Pump-1            PUMP        95.00     0  00:00              1.00
  XR-Pump-2            PUMP        95.00     0  02:00              1.00
  XR-Pump-3            PUMP        95.00     0  00:00              1.00
  XR-Pump-4            PUMP        95.00     0  00:00              1.00
  
  
  ***************************
  Flow Classification Summary
  ***************************
  
  -------------------------------------------------------------------------------------
                      Adjusted    ---------- Fraction of Time in Flow Class ---------- 
                       /Actual         Up    Down  Sub   Sup   Up    Down  Norm  Inlet 
  Conduit               Length    Dry  Dry   Dry   Crit  Crit  Crit  Crit  Ltd   Ctrl  
  -------------------------------------------------------------------------------------
  WS02003066WSF200        1.00   0.06  0.00  0.00  0.00  0.94  0.00  0.00  0.59  0.00
  WS02006287WS02006284    1.00   0.03  0.01  0.00  0.61  0.35  0.00  0.00  0.68  0.00
  WS02006284WS02006280    1.00   0.04  0.00  0.00  0.00  0.00  0.00  0.96  0.00  0.00
  WS02006280WS02006229    1.00   0.04  0.00  0.00  0.00  0.00  0.00  0.96  0.00  0.00
  WS02006229WS02006228    1.00   0.00  0.00  0.00  0.98  0.00  0.00  0.02  0.00  0.00
  WS02006256WS02006235    1.00   0.00  0.00  0.00  1.00  0.00  0.00  0.00  0.00  0.00
  WS02006253WS02006251    1.00   0.02  0.01  0.00  0.97  0.00  0.00  0.00  0.00  0.00
  WS02006252WS02006251    1.00   0.05  0.00  0.00  0.00  0.00  0.95  0.00  0.00  0.00
  WS02006251WS02006249    1.00   0.00  0.00  0.00  1.00  0.00  0.00  0.00  0.21  0.00
  WS02006249WS02006248    1.00   0.00  0.02  0.00  0.89  0.00  0.09  0.00  0.00  0.00
  WS02006248WS02006247    1.00   0.02  0.00  0.00  0.97  0.00  0.00  0.01  0.11  0.00
  WS02006247WS02006245    1.00   0.02  0.00  0.00  0.97  0.00  0.00  0.02  0.00  0.00
  WS02006245WS02006243    1.00   0.01  0.00  0.00  0.96  0.00  0.00  0.03  0.02  0.00
  WS02006243WS02006242    1.00   0.01  0.00  0.00  0.99  0.00  0.00  0.00  0.18  0.00
  WS02006242WS02006240    1.00   0.00  0.00  0.00  0.99  0.00  0.00  0.00  0.00  0.00
  WS02006240WS02006239    1.00   0.00  0.00  0.00  0.97  0.00  0.00  0.03  0.02  0.00
  WS02006239WS02006238    1.00   0.00  0.00  0.00  1.00  0.00  0.00  0.00  0.00  0.00
  WS02006238WS02006235    1.00   0.00  0.00  0.00  1.00  0.00  0.00  0.00  0.00  0.00
  WS02006235WS02006234    1.00   0.00  0.00  0.00  0.97  0.00  0.03  0.00  0.00  0.00
  WS02006234WS02006232    1.00   0.00  0.00  0.00  1.00  0.00  0.00  0.00  0.00  0.00
  WS02006232WS02006231    1.00   0.00  0.00  0.00  0.99  0.00  0.01  0.00  0.00  0.00
  WS02006231WS02006230    1.00   0.00  0.00  0.00  0.46  0.00  0.54  0.00  0.00  0.00
  WS02006230WS02006229    1.00   0.00  0.00  0.00  0.98  0.00  0.00  0.02  0.01  0.00
  WS02006228WS02006109    1.00   0.00  0.00  0.00  1.00  0.00  0.00  0.00  0.00  0.00
  WS02006116WS02004401    1.00   0.02  0.00  0.00  0.98  0.00  0.00  0.00  0.00  0.00
  WS02006115WS02006116    1.00   0.02  0.00  0.00  0.97  0.00  0.00  0.01  0.01  0.00
  WS02006113WS02006111    1.00   0.02  0.00  0.00  0.00  0.98  0.00  0.00  0.12  0.00
  WS02006112WS02006115    1.00   0.02  0.00  0.00  0.98  0.00  0.00  0.00  0.00  0.00
  WS02006111WS02006112    1.00   0.02  0.00  0.00  0.98  0.00  0.00  0.00  0.98  0.00
  WS02006110WS02006113    1.00   0.01  0.00  0.00  0.98  0.00  0.00  0.00  0.00  0.00
  WS02006109WS02006110    1.00   0.00  0.01  0.00  0.98  0.00  0.00  0.00  0.00  0.00
  WS02004411WS02004412    1.00   0.05  0.00  0.00  0.95  0.00  0.00  0.00  0.00  0.00
  WS02004401WS02004402    1.00   0.02  0.00  0.00  0.98  0.00  0.00  0.00  0.00  0.00
  WS02004413WS02003067    1.00   0.05  0.01  0.00  0.00  0.00  0.95  0.00  0.00  0.00
  WS02004412WS02004413    1.00   0.05  0.00  0.00  0.95  0.00  0.00  0.00  0.00  0.00
  WS02004410WS02004411    1.00   0.04  0.00  0.00  0.96  0.00  0.00  0.00  0.00  0.00
  WS02004409WS02004410    1.00   0.04  0.00  0.00  0.96  0.00  0.00  0.00  0.00  0.00
  WS02004407WS02004409    1.00   0.04  0.00  0.00  0.95  0.00  0.00  0.00  0.81  0.00
  WS02004406WS02004407    1.00   0.00  0.04  0.00  0.96  0.00  0.00  0.00  0.00  0.00
  WS02004405WS02004406    1.00   0.00  0.00  0.00  1.00  0.00  0.00  0.00  0.02  0.00
  WS02004404WS02004405    1.00   0.00  0.00  0.00  1.00  0.00  0.00  0.00  0.00  0.00
  WS02004403WS02004404    1.00   0.00  0.02  0.00  0.98  0.00  0.00  0.00  0.02  0.00
  WS02004402WS02004403    1.00   0.02  0.00  0.00  0.98  0.00  0.00  0.00  0.00  0.00
  WS02004139WS02001211    1.00   0.00  0.00  0.00  0.99  0.00  0.01  0.00  0.00  0.00
  WS02004138WS02004139    1.00   0.00  0.00  0.00  0.99  0.01  0.00  0.00  1.00  0.00
  WS02003067WS02003066    1.00   0.05  0.00  0.00  0.94  0.00  0.00  0.00  0.00  0.00
  WS02001213WS02003059    1.00   0.00  0.00  0.00  0.99  0.00  0.00  0.00  0.00  0.00
  WS02001212WS02001213    1.00   0.00  0.00  0.00  0.86  0.00  0.14  0.00  0.00  0.00
  WS02001211WS02001212    1.00   0.00  0.00  0.00  1.00  0.00  0.00  0.00  0.00  0.00
  WS02003072WS02003073    1.00   0.00  0.00  0.00  0.00  0.00  0.00  1.00  0.00  0.00
  WS02003069WS02003072    1.00   0.00  0.00  0.00  0.99  0.01  0.00  0.00  0.21  0.00
  WS02003060WS02003069    1.00   0.00  0.00  0.00  0.98  0.02  0.00  0.00  0.13  0.00
  WS02003059WS02003060    1.00   0.00  0.00  0.00  0.99  0.01  0.00  0.00  0.01  0.00
  HS02004901HS02004770    1.00   0.03  0.00  0.00  0.97  0.00  0.00  0.00  0.00  0.00
  HS02004876HS02004881    1.00   0.02  0.00  0.00  0.98  0.00  0.00  0.00  0.00  0.00
  HS02004870HS02004876    1.00   0.01  0.00  0.00  0.99  0.00  0.00  0.00  0.95  0.00
  HS02004842HS02004848    1.00   0.00  0.03  0.00  0.97  0.00  0.00  0.00  0.58  0.00
  HS02004837HS02004842    1.00   0.00  0.00  0.00  0.99  0.01  0.00  0.00  0.11  0.00
  HS02004830HS02004837    1.00   0.00  0.00  0.00  1.00  0.00  0.00  0.00  0.99  0.00
  HS02004824HS02004830    1.00   0.00  0.00  0.00  1.00  0.00  0.00  0.00  0.00  0.00
  HS02004817HS02004824    1.00   0.00  0.00  0.00  1.00  0.00  0.00  0.00  1.00  0.00
  HS02004770HS02004777    1.00   0.00  0.03  0.00  0.97  0.00  0.00  0.00  0.03  0.00
  HS02004799HS02004480    1.00   0.00  0.02  0.00  0.96  0.00  0.02  0.00  0.00  0.00
  HS02004792HS02004799    1.00   0.00  0.00  0.00  0.99  0.01  0.00  0.00  0.98  0.00
  HS02004788HS02004792    1.00   0.00  0.00  0.00  0.99  0.01  0.00  0.00  0.98  0.00
  HS02004785HS02004788    1.00   0.00  0.00  0.00  1.00  0.00  0.00  0.00  0.00  0.00
  HS02004777HS02004785    1.00   0.00  0.00  0.00  1.00  0.00  0.00  0.00  0.12  0.00
  HS02004480HS02004478    1.00   0.03  0.00  0.00  0.66  0.00  0.00  0.31  0.00  0.00
  HS02004479HS02004480    1.00   0.02  0.00  0.00  0.98  0.00  0.00  0.00  0.12  0.00
  HS02004862HS02004870    1.00   0.00  0.00  0.00  1.00  0.00  0.00  0.00  0.04  0.00
  HS02004848HS02004852    1.00   0.03  0.00  0.00  0.97  0.00  0.00  0.00  0.76  0.00
  HS02004856HS02004862    1.00   0.00  0.04  0.00  0.96  0.00  0.00  0.00  0.83  0.00
  HS02004852HS02004856    1.00   0.03  0.00  0.00  0.96  0.00  0.00  0.00  0.86  0.00
  HS02004802HS02004478    1.00   0.03  0.00  0.00  0.96  0.00  0.00  0.00  0.03  0.00
  HS02004478WS02006287    1.00   0.04  0.00  0.00  0.73  0.23  0.00  0.00  0.65  0.00
  HS02004817HS02004807    1.00   0.00  0.03  0.00  0.97  0.00  0.00  0.00  0.01  0.00
  HS02004807HS02004802    1.00   0.03  0.00  0.00  0.96  0.00  0.00  0.00  0.00  0.00
  YS02001759YS02001757    1.00   0.00  0.00  0.00  1.00  0.00  0.00  0.00  0.16  0.00
  YS02001762YS02001759    1.00   0.00  0.00  0.00  1.00  0.00  0.00  0.00  0.03  0.00
  YS02001765YS02001762    1.00   0.00  0.00  0.00  1.00  0.00  0.00  0.00  0.14  0.00
  YS02001770YS02001767    1.00   0.00  0.00  0.00  1.00  0.00  0.00  0.00  0.00  0.00
  YS02001774YS02001770    1.00   0.00  0.03  0.00  0.96  0.00  0.00  0.00  0.03  0.00
  YS02001779YS02001774    1.00   0.00  0.00  0.00  1.00  0.00  0.00  0.00  0.18  0.00
  YS02001649YS02001757    1.00   0.00  0.00  0.00  1.00  0.00  0.00  0.00  0.16  0.00
  YS02001767YS02001765    1.00   0.00  0.00  0.00  1.00  0.00  0.00  0.00  0.00  0.00
  YS02006561YS02001783    1.00   0.04  0.00  0.00  0.43  0.52  0.00  0.00  0.57  0.00
  YS02001783YS02001784    1.00   0.00  0.04  0.00  0.96  0.00  0.00  0.00  0.00  0.00
  YS02001784YS02001785    1.00   0.00  0.00  0.00  1.00  0.00  0.00  0.00  0.17  0.00
  YS02001788YS02001790    1.00   0.00  0.00  0.00  0.51  0.49  0.00  0.00  0.51  0.00
  YS02001790YS02001791    1.00   0.00  0.00  0.00  0.49  0.51  0.00  0.00  0.38  0.00
  YS02001791YS02001793    1.00   0.00  0.00  0.00  0.51  0.49  0.00  0.00  0.02  0.00
  YS02001910YS02001907    1.00   0.00  0.00  0.00  0.98  0.00  0.00  0.02  0.12  0.00
  YS02001786YS02001788    1.00   0.00  0.00  0.00  0.50  0.50  0.00  0.00  0.00  0.00
  YS02001915YS02001910    1.00   0.00  0.00  0.00  0.99  0.01  0.00  0.00  0.16  0.00
  YS02001918YS02001915    1.00   0.00  0.01  0.00  0.99  0.00  0.00  0.00  0.59  0.00
  YS02001923YS02001920    1.00   0.00  0.00  0.00  1.00  0.00  0.00  0.00  0.87  0.00
  YS02001926YS02001923    1.00   0.00  0.03  0.00  0.10  0.00  0.87  0.00  0.00  0.00
  YS02001929YS02001926    1.00   0.00  0.03  0.00  0.97  0.00  0.00  0.00  0.85  0.00
  YS02001920YS02001918    1.00   0.00  0.01  0.00  0.99  0.00  0.00  0.00  0.00  0.00
  YS02001629YS02163301    1.00   0.04  0.00  0.00  0.96  0.00  0.00  0.00  0.00  0.00
  YS02001619YS02001622    1.00   0.03  0.00  0.00  0.97  0.00  0.00  0.00  0.00  0.00
  YS02001622YS02001625    1.00   0.03  0.00  0.00  0.97  0.00  0.00  0.00  0.04  0.00
  YS02001625YS02001629    1.00   0.03  0.01  0.00  0.95  0.00  0.01  0.00  0.00  0.00
  YS02163301YS02001633    1.00   0.00  0.04  0.00  0.96  0.00  0.00  0.00  0.00  0.00
  YS02163601YS02164001    1.00   0.00  0.03  0.00  0.97  0.00  0.00  0.00  0.00  0.00
  YS02164001YS02001641    1.00   0.01  0.02  0.00  0.97  0.00  0.00  0.00  0.06  0.00
  YS02001641YS02001644    1.00   0.00  0.01  0.00  0.99  0.00  0.00  0.00  0.00  0.00
  YS02001647YS02001649    1.00   0.00  0.04  0.00  0.96  0.00  0.00  0.00  0.01  0.00
  YS02006553YS02006556    1.00   0.02  0.00  0.00  0.98  0.00  0.00  0.00  0.03  0.00
  YS02006556YS02006558    1.00   0.00  0.00  0.00  1.00  0.00  0.00  0.00  0.00  0.00
  YSB6556YSB1171          1.00   0.02  0.01  0.00  0.97  0.00  0.00  0.00  0.00  0.00
  YS02001907YS02006553    1.00   0.00  0.01  0.00  0.98  0.00  0.00  0.00  0.00  0.00
  YS02006558YS02006561    1.00   0.04  0.00  0.00  0.16  0.80  0.00  0.00  0.51  0.00
  YS02001633YS02163601    1.00   0.00  0.01  0.00  0.99  0.00  0.00  0.00  0.15  0.00
  YS02001644YS02001647    1.00   0.00  0.04  0.00  0.96  0.00  0.00  0.00  0.00  0.00
  YS02001745YS02001748    1.00   0.00  0.00  0.00  0.92  0.01  0.00  0.08  0.04  0.00
  YS02001748YS02001751    1.00   0.00  0.00  0.00  0.98  0.02  0.00  0.00  0.14  0.00
  YS02001751YS02001754    1.00   0.00  0.00  0.00  0.95  0.00  0.00  0.05  0.02  0.00
  YS02001754YS02001757    1.00   0.00  0.00  0.00  0.99  0.01  0.00  0.00  0.18  0.00
  YS02001882YS02001884    1.00   0.04  0.00  0.00  0.96  0.00  0.00  0.00  0.00  0.00
  YS02001884YS02001887    1.00   0.02  0.01  0.00  0.97  0.00  0.00  0.00  0.00  0.00
  YS02001890YS02001895    1.00   0.00  0.04  0.00  0.96  0.00  0.00  0.00  0.00  0.00
  YS02001895YS02001898    1.00   0.04  0.00  0.00  0.95  0.00  0.01  0.00  0.00  0.00
  YS02001898YS02001901    1.00   0.04  0.00  0.00  0.96  0.00  0.00  0.00  0.01  0.00
  YS02001901YS02001904    1.00   0.04  0.00  0.00  0.96  0.00  0.00  0.00  0.00  0.00
  YS02001904YS02001907    1.00   0.00  0.04  0.00  0.96  0.00  0.00  0.00  0.00  0.00
  YS02001887YS02001890    1.00   0.00  0.00  0.00  0.98  0.00  0.01  0.00  0.00  0.00
  YS02001652YS02001649    1.00   0.00  0.00  0.00  1.00  0.00  0.00  0.00  0.16  0.00
  YS02001655YS02001652    1.00   0.00  0.00  0.00  0.95  0.00  0.00  0.05  0.02  0.00
  YS02001658YS02001655    1.00   0.00  0.04  0.00  0.95  0.02  0.00  0.00  0.04  0.00
  YS02001661YS02001658    1.00   0.04  0.00  0.00  0.92  0.05  0.00  0.00  0.04  0.00
  YS02001664YS02001661    1.00   0.03  0.00  0.00  0.89  0.08  0.00  0.00  0.19  0.00
  YSB1154YSB6556          1.00   0.03  0.00  0.00  0.97  0.00  0.00  0.00  0.02  0.00
  YSB1174YSB1171          1.00   0.02  0.01  0.00  0.97  0.00  0.00  0.00  0.00  0.00
  YSB1171HS02004479       1.00   0.02  0.00  0.00  0.98  0.00  0.00  0.00  0.10  0.00
  HS02004881HS02006253    1.00   0.02  0.00  0.00  0.65  0.05  0.00  0.28  0.57  0.00
  YS02001793JiankangQianchi    1.00   0.00  0.00  0.00  0.67  0.33  0.00  0.00  0.14  0.00
  YS02001757CaochengTiaoxuchi    1.00   0.00  0.05  0.00  0.94  0.01  0.00  0.00  0.00  0.00
  WSF200WS02003060        1.00   0.00  0.06  0.00  0.60  0.34  0.00  0.00  0.23  0.00
  1                       1.00   0.00  0.00  0.00  0.00  1.00  0.00  0.00  0.40  0.00
  2                       1.00   0.75  0.00  0.00  0.00  0.25  0.00  0.00  0.06  0.00
  3                       1.00   0.16  0.00  0.00  0.00  0.84  0.00  0.00  0.07  0.00
  4                       1.00   1.00  0.00  0.00  0.00  0.00  0.00  0.00  0.00  0.00
  
  
  *************************
  Conduit Surcharge Summary
  *************************
  
  ----------------------------------------------------------------------------
                                                           Hours        Hours 
                         --------- Hours Full --------   Above Full   Capacity
  Conduit                Both Ends  Upstream  Dnstream   Normal Flow   Limited
  ----------------------------------------------------------------------------
  WS02006229WS02006228        1.77      1.97      1.77      4.01         1.77
  WS02006256WS02006235        6.26      6.26      7.82      3.54         0.01
  WS02006252WS02006251        0.58      0.58      1.31      1.12         0.01
  WS02006251WS02006249        0.01      0.01      0.01      0.62         0.01
  WS02006249WS02006248        0.01      0.01      0.01      3.86         0.01
  WS02006247WS02006245        0.01      0.01      0.01      4.63         0.01
  WS02006245WS02006243        0.01      0.01      0.05      0.01         0.01
  WS02006243WS02006242        0.19      0.19      0.80      0.01         0.01
  WS02006242WS02006240        0.42      0.42      1.20      1.42         0.01
  WS02006240WS02006239        0.52      0.52      0.63      0.01         0.01
  WS02006239WS02006238        1.12      1.12      1.28      0.01         0.02
  WS02006238WS02006235        1.10      1.10      1.57      0.01         0.01
  WS02006235WS02006234        0.61      0.61      0.95      6.28         0.01
  WS02006234WS02006232        0.78      0.78      1.82      0.01         0.01
  WS02006232WS02006231        0.17      0.17      1.82      0.01         0.01
  WS02006231WS02006230        0.01      0.01      0.36      6.24         0.01
  WS02006230WS02006229        2.52      3.47      2.52      6.31         2.52
  WS02006228WS02006109        1.86      2.28      1.86      5.54         1.86
  WS02006112WS02006115        0.01      0.01      1.38      0.01         0.01
  WS02006111WS02006112        0.01      0.01      4.22      0.01         0.01
  WS02006110WS02006113        0.01      0.01      2.13      0.01         0.01
  WS02006109WS02006110        0.80      0.80      2.28      0.82         0.01
  WS02004405WS02004406        0.01      0.01      0.01      1.07         0.01
  WS02004404WS02004405        0.01      0.01      0.01      6.24         0.01
  WS02003072WS02003073        0.01      0.01      0.01      5.29         0.01
  YS02001759YS02001757        5.98      5.98      6.04      0.01         0.01
  YS02001762YS02001759        5.96      5.96      5.98      0.01         0.01
  YS02001765YS02001762        5.93      5.93      5.96      0.01         0.01
  YS02001770YS02001767        5.92      5.92      5.92      0.04         0.80
  YS02001774YS02001770        5.89      5.89      5.95      0.01         0.01
  YS02001779YS02001774        5.72      5.72      5.95      0.01         0.01
  YS02001649YS02001757        5.96      5.96      6.04      0.01         0.01
  YS02001767YS02001765        5.92      5.92      5.93      0.01         0.01
  YS02006561YS02001783        0.01      0.01      1.24      0.01         0.01
  YS02001783YS02001784        1.24      1.24      1.28      0.88         0.86
  YS02001784YS02001785        1.25      1.28      1.25      2.02         1.24
  YS02001788YS02001790        1.23      1.23      2.92      0.01         0.01
  YS02001790YS02001791        2.92      2.92      3.07      0.01         0.01
  YS02001791YS02001793        3.07      3.07      3.24      0.01         0.01
  YS02001910YS02001907        0.82      0.82      1.44      0.01         0.01
  YS02001786YS02001788        1.23      1.25      1.23      1.65         1.23
  YS02001915YS02001910        0.45      0.45      0.82      0.01         0.01
  YS02001918YS02001915        0.01      0.01      0.45      0.01         0.01
  YS02001629YS02163301        5.86      5.86      5.91      0.01         0.01
  YS02001619YS02001622        5.51      5.51      5.57      0.01         0.01
  YS02001622YS02001625        5.57      5.57      5.77      0.01         0.01
  YS02001625YS02001629        5.54      5.54      5.77      0.01         0.01
  YS02163301YS02001633        5.91      5.91      5.95      0.01         0.01
  YS02163601YS02164001        5.94      5.94      5.96      0.01         0.01
  YS02164001YS02001641        5.94      5.94      5.95      0.01         0.03
  YS02001641YS02001644        5.95      5.95      5.95      1.02         1.36
  YS02001647YS02001649        5.75      5.75      5.96      0.01         0.01
  YS02006553YS02006556        1.12      1.12      1.51      0.01         0.01
  YS02006556YS02006558        1.31      1.31      1.59      0.01         0.01
  YS02001907YS02006553        2.03      2.03      2.24      0.01         0.01
  YS02006558YS02006561        0.66      1.06      0.66      1.89         0.66
  YS02001633YS02163601        5.93      5.93      5.96      0.01         0.01
  YS02001644YS02001647        5.75      5.75      5.95      0.01         0.01
  YS02001745YS02001748        0.01      0.01      5.29      0.01         0.01
  YS02001748YS02001751        5.37      5.37      5.52      0.01         0.01
  YS02001751YS02001754        5.52      5.52      5.73      0.01         0.01
  YS02001754YS02001757        5.75      5.75      6.04      0.01         0.01
  YS02001882YS02001884        0.48      0.48      0.55      0.01         0.01
  YS02001884YS02001887        0.66      0.66      0.71      0.01         0.01
  YS02001890YS02001895        0.41      0.41      0.86      0.01         0.01
  YS02001895YS02001898        0.37      0.37      0.41      0.01         0.01
  YS02001898YS02001901        0.43      0.43      0.65      0.01         0.01
  YS02001901YS02001904        0.61      0.61      0.65      0.01         0.01
  YS02001904YS02001907        0.61      0.61      1.53      0.01         0.01
  YS02001887YS02001890        0.76      0.76      0.80      0.01         0.01
  YS02001652YS02001649        5.76      5.76      5.96      0.01         0.01
  YS02001655YS02001652        5.55      5.55      5.75      0.01         0.01
  YS02001658YS02001655        5.33      5.33      5.55      0.01         0.01
  YS02001661YS02001658        0.20      0.20      5.33      0.01         0.01
  YS02001664YS02001661        0.01      0.01      1.10      0.01         0.01
  YS02001793JiankangQianchi        3.13      3.13      4.19      0.01         0.01
  YS02001757CaochengTiaoxuchi        5.21      5.21      6.04      0.01         0.01
  3                           0.01      0.01      0.01      0.01         0.01
  
  
  ***************
  Pumping Summary
  ***************
  
  ---------------------------------------------------------------------------------------------------------
                                                  Min       Avg       Max     Total     Power    % Time Off
                        Percent   Number of      Flow      Flow      Flow    Volume     Usage    Pump Curve
  Pump                 Utilized   Start-Ups       LPS       LPS       LPS  10^6 ltr     Kw-hr    Low   High
  ---------------------------------------------------------------------------------------------------------
  CC-Pump-1               63.82           4      0.00    134.62    200.00     2.400      3.24    0.0    9.9
  CC-Pump-2               49.25           9      0.00    121.13    200.00     1.674      1.89    0.0    5.0
  JK-Pump-1               85.10           8      0.00    143.91    300.00     2.874     28.71    0.0    0.0
  JK-Pump-2               74.46           6      0.00    163.64    300.00     2.621     26.46    0.0    0.0
  XR-Pump-1               82.96           8      0.00     68.85     95.00     1.653     11.86    0.0    0.0
  XR-Pump-2               72.33           6      0.00     62.97     95.00     1.254      7.12    0.0    0.0
  XR-Pump-3               76.58           8      0.00     67.16     95.00     1.539     12.20    0.0    0.0
  XR-Pump-4               78.72           6      0.00     72.14     95.00     1.511      9.85    0.0    0.0
  

  Analysis begun on:  Tue Dec 14 17:23:02 2021
  Analysis ended on:  Tue Dec 14 17:23:07 2021
  Total elapsed time: 00:00:05