
  EPA STORM WATER MANAGEMENT MODEL - VERSION 5.1 (Build 5.3.0.dev0)
  --------------------------------------------------------------

  WARNING 04: minimum elevation drop used for Conduit WS02004404WS02004405
  WARNING 03: negative offset ignored for Link YS02001904YS02001907
  
  *********************************************************
  NOTE: The summary statistics displayed in this report are
  based on results found at every computational time step,  
  not just on results from each reporting time step.
  *********************************************************
  
  ****************
  Analysis Options
  ****************
  Flow Units ............... LPS
  Process Models:
    Rainfall/Runoff ........ YES
    RDII ................... NO
    Snowmelt ............... NO
    Groundwater ............ NO
    Flow Routing ........... YES
    Ponding Allowed ........ NO
    Water Quality .......... NO
  Infiltration Method ...... HORTON
  Flow Routing Method ...... DYNWAVE
  Surcharge Method ......... EXTRAN
  Starting Date ............ 08/28/2015 08:00:00
  Ending Date .............. 08/28/2015 15:50:00
  Antecedent Dry Days ...... 8.0
  Report Time Step ......... 00:01:00
  Wet Time Step ............ 00:01:00
  Dry Time Step ............ 00:01:00
  Routing Time Step ........ 5.00 sec
  Variable Time Step ....... YES
  Maximum Trials ........... 8
  Number of Threads ........ 4
  Head Tolerance ........... 0.001500 m
  
  
  **************************        Volume         Depth
  Runoff Quantity Continuity     hectare-m            mm
  **************************     ---------       -------
  Total Precipitation ......         3.868         8.469
  Evaporation Loss .........         0.000         0.000
  Infiltration Loss ........         0.985         2.157
  Surface Runoff ...........         1.916         4.194
  Final Storage ............         0.968         2.119
  Continuity Error (%) .....        -0.017
  
  
  **************************        Volume        Volume
  Flow Routing Continuity        hectare-m      10^6 ltr
  **************************     ---------     ---------
  Dry Weather Inflow .......         0.616         6.165
  Wet Weather Inflow .......         1.915        19.148
  Groundwater Inflow .......         0.000         0.000
  RDII Inflow ..............         0.000         0.000
  External Inflow ..........         0.102         1.024
  External Outflow .........         1.770        17.699
  Flooding Loss ............         0.397         3.967
  Evaporation Loss .........         0.000         0.000
  Exfiltration Loss ........         0.000         0.000
  Initial Stored Volume ....         0.076         0.761
  Final Stored Volume ......         0.630         6.296
  Continuity Error (%) .....        -3.193
  
  
  *************************
  Highest Continuity Errors
  *************************
  Node YS02001774 (40.04%)
  Node HS02004842 (20.89%)
  Node JK-storage (-14.97%)
  Node YS02001884 (14.41%)
  Node YSB1171 (4.66%)
  
  
  ***************************
  Time-Step Critical Elements
  ***************************
  Link WS02006252WS02006251 (57.07%)
  Link 3 (33.18%)
  Link WS02006238WS02006235 (2.82%)
  Link WS02006280WS02006229 (2.01%)
  
  
  ********************************
  Highest Flow Instability Indexes
  ********************************
  Link WS02006113WS02006111 (40)
  Link YS02001779YS02001774 (31)
  Link YS02001774YS02001770 (30)
  Link YS02001765YS02001762 (24)
  Link WS02006111WS02006112 (23)
  
  
  *************************
  Routing Time Step Summary
  *************************
  Minimum Time Step           :     0.50 sec
  Average Time Step           :     0.85 sec
  Maximum Time Step           :     5.00 sec
  Percent in Steady State     :    -0.00
  Average Iterations per Step :     4.23
  Percent Not Converging      :    21.61
  
  
  ***************************
  Subcatchment Runoff Summary
  ***************************
  
  ------------------------------------------------------------------------------------------------------------------------------
                            Total      Total      Total      Total     Imperv       Perv      Total       Total     Peak  Runoff
                           Precip      Runon       Evap      Infil     Runoff     Runoff     Runoff      Runoff   Runoff   Coeff
  Subcatchment                 mm         mm         mm         mm         mm         mm         mm    10^6 ltr      LPS
  ------------------------------------------------------------------------------------------------------------------------------
  sub0                       8.47       0.00       0.00       0.59       6.61       0.00       6.61        0.01     1.03   0.781
  sub1                       8.47       0.00       0.00       0.93       6.28       0.00       6.28        0.04     7.43   0.741
  sub2                       8.47       0.00       0.00       3.13       4.43       0.00       4.43        0.04     7.08   0.523
  sub3                       8.47       0.00       0.00       3.13       4.39       0.00       4.39        0.10    15.91   0.518
  sub4                       8.47       0.00       0.00       0.93       6.13       0.00       6.13        0.13    19.23   0.724
  sub5                       8.47       0.00       0.00       0.59       6.56       0.00       6.56        0.07    13.22   0.775
  sub7                       8.47       0.00       0.00       0.76       6.45       0.00       6.45        0.02     4.04   0.762
  sub8                       8.47       0.00       0.00       0.76       6.44       0.00       6.44        0.04     7.54   0.761
  sub9                       8.47       0.00       0.00       0.76       6.44       0.00       6.44        0.03     5.65   0.760
  sub10                      8.47       0.00       0.00       0.68       6.50       0.00       6.50        0.07    12.87   0.767
  sub11                      8.47       0.00       0.00       0.68       6.52       0.00       6.52        0.08    13.93   0.769
  sub12                      8.47       0.00       0.00       1.10       6.18       0.00       6.18        0.05    10.23   0.730
  sub14                      8.47       0.00       0.00       0.76       6.44       0.00       6.44        0.06    11.15   0.760
  sub15                      8.47       0.00       0.00       2.54       4.95       0.00       4.95        0.09    15.40   0.584
  sub16                      8.47       0.00       0.00       2.79       4.76       0.00       4.76        0.05     9.37   0.561
  sub17                      8.47       0.00       0.00       2.71       4.82       0.00       4.82        0.04     7.75   0.570
  sub22                      8.47       0.00       0.00       3.64       4.04       0.00       4.04        0.26    47.08   0.477
  sub23                      8.47       0.00       0.00       3.13       4.46       0.00       4.46        0.21    39.46   0.527
  sub60                      8.47       0.00       0.00       1.02       4.75       0.00       4.75        1.44   149.28   0.561
  sub61                      8.47       0.00       0.00       1.44       4.95       0.00       4.95        1.53   180.35   0.585
  sub62                      8.47       0.00       0.00       0.68       5.35       0.00       5.35        1.64   187.08   0.631
  sub63                      8.47       0.00       0.00       2.46       4.37       0.00       4.37        1.32   164.01   0.516
  sub64                      8.47       0.00       0.00       1.27       4.55       0.00       4.55        1.38   141.99   0.537
  sub65                      8.47       0.00       0.00       1.10       4.62       0.00       4.62        1.42   144.28   0.545
  sub66                      8.47       0.00       0.00       2.46       3.94       0.00       3.94        1.21   129.20   0.465
  sub67                      8.47       0.00       0.00       0.68       5.75       0.00       5.75        1.78   226.25   0.679
  sub68                      8.47       0.00       0.00       1.19       5.24       0.00       5.24        1.61   196.27   0.618
  sub69                      8.47       0.00       0.00       1.27       5.53       0.00       5.53        1.29   176.57   0.653
  sub70                      8.47       5.64       0.00       4.80       7.11       0.00       7.11        1.63   167.69   0.504
  sub71                      8.47       0.00       0.00       0.68       5.16       0.00       5.16        1.22   132.38   0.610
  sub72                      8.47       0.00       0.00       0.59       3.87       0.00       3.87        0.79    64.98   0.457
  sub73                      8.47       6.92       0.00       5.23       7.51       0.00       7.51        1.76   149.38   0.488
  sub74                      8.47       0.00       0.00       6.35       1.66       0.00       1.66        0.66    93.55   0.196
  
  
  ******************
  Node Depth Summary
  ******************
  
  ---------------------------------------------------------------------------------
                                 Average  Maximum  Maximum  Time of Max    Reported
                                   Depth    Depth      HGL   Occurrence   Max Depth
  Node                 Type       Meters   Meters   Meters  days hr:min      Meters
  ---------------------------------------------------------------------------------
  WS02001211           JUNCTION     0.62     0.76     5.60     0  03:41        0.76
  WS02001212           JUNCTION     0.35     0.47     5.53     0  03:41        0.47
  WS02001213           JUNCTION     0.59     0.71     5.47     0  03:42        0.71
  WS02003069           JUNCTION     0.43     0.54     5.13     0  02:53        0.54
  WS02003072           JUNCTION     0.49     0.60     4.97     0  02:54        0.60
  WS02003073           JUNCTION     0.29     0.37     4.43     0  02:54        0.37
  WS02003060           JUNCTION     0.38     0.48     5.41     0  02:53        0.48
  WS02003066           JUNCTION     0.24     0.30     5.86     0  02:31        0.30
  WS02003059           JUNCTION     0.65     0.76     5.45     0  03:42        0.76
  WS02003067           JUNCTION     0.58     0.71     6.03     0  02:30        0.71
  WS02004401           JUNCTION     0.68     0.87     6.87     0  02:28        0.87
  WS02004402           JUNCTION     0.72     0.90     6.86     0  02:28        0.90
  WS02004403           JUNCTION     0.74     0.91     6.84     0  02:28        0.91
  WS02004404           JUNCTION     0.81     0.98     6.83     0  02:28        0.98
  WS02004406           JUNCTION     0.82     0.97     6.80     0  02:29        0.97
  WS02004409           JUNCTION     0.50     0.69     6.46     0  02:29        0.69
  WS02004410           JUNCTION     0.52     0.70     6.42     0  02:29        0.70
  WS02004411           JUNCTION     0.54     0.71     6.39     0  02:30        0.71
  WS02004412           JUNCTION     0.55     0.71     6.35     0  02:30        0.71
  WS02004413           JUNCTION     0.71     0.87     6.34     0  02:30        0.87
  WS02004405           JUNCTION     0.81     0.97     6.82     0  02:29        0.97
  WS02006109           JUNCTION     0.77     0.99     7.61     0  02:25        0.99
  WS02006110           JUNCTION     0.76     0.94     7.52     0  02:25        0.94
  WS02006111           JUNCTION     0.22     0.29     7.00     0  02:27        0.29
  WS02006112           JUNCTION     0.86     1.09     6.97     0  02:21        1.08
  WS02006113           JUNCTION     0.35     0.46     7.36     0  02:26        0.46
  WS02006115           JUNCTION     0.58     0.78     6.92     0  02:28        0.77
  WS02006116           JUNCTION     0.66     0.85     6.89     0  02:28        0.85
  WS02006230           JUNCTION     0.74     1.04     7.79     0  02:25        1.04
  WS02006231           JUNCTION     0.50     0.72     7.84     0  02:24        0.72
  WS02006232           JUNCTION     0.63     0.85     7.89     0  02:21        0.85
  WS02006234           JUNCTION     0.55     0.79     7.95     0  02:20        0.79
  WS02006235           JUNCTION     0.59     0.82     7.99     0  02:20        0.82
  WS02006238           JUNCTION     0.61     0.85     7.99     0  02:20        0.85
  WS02006240           JUNCTION     0.51     0.77     8.06     0  02:20        0.77
  WS02006242           JUNCTION     0.56     0.83     8.10     0  02:20        0.83
  WS02006243           JUNCTION     0.44     0.72     8.14     0  02:20        0.72
  WS02006245           JUNCTION     0.42     0.69     8.17     0  02:20        0.69
  WS02006247           JUNCTION     0.44     0.69     8.19     0  02:20        0.69
  WS02006248           JUNCTION     0.39     0.62     8.21     0  02:20        0.62
  WS02006249           JUNCTION     0.42     0.63     8.23     0  02:23        0.63
  WS02006239           JUNCTION     0.57     0.82     8.03     0  02:20        0.82
  WS02006251           JUNCTION     0.41     0.67     8.34     0  02:24        0.67
  WS02006252           JUNCTION     0.36     0.59     8.84     0  04:59        0.59
  WS02006253           JUNCTION     0.44     0.69     8.34     0  02:24        0.69
  WS02006256           JUNCTION     1.06     2.35     9.28     0  00:00        1.21
  WS02004138           JUNCTION     0.14     0.19     7.44     0  01:20        0.19
  WS02004407           JUNCTION     0.23     0.30     6.62     0  02:29        0.30
  WS02006228           JUNCTION     0.77     1.03     7.68     0  02:25        1.03
  WS02006229           JUNCTION     0.75     1.03     7.73     0  02:25        1.03
  WS02006280           JUNCTION     0.07     0.14     8.41     0  02:27        0.14
  WS02006284           JUNCTION     0.36     0.48     8.88     0  02:27        0.48
  WS02006287           JUNCTION     0.09     0.21     9.16     0  02:27        0.21
  WSF200               JUNCTION     0.23     0.32     5.55     0  02:31        0.32
  HS02004901           JUNCTION     0.12     0.22    10.04     0  02:25        0.22
  HS02004881           JUNCTION     0.01     0.02     9.05     0  02:26        0.02
  HS02004876           JUNCTION     0.04     0.10     9.13     0  02:25        0.10
  HS02004870           JUNCTION     0.01     0.04     9.33     0  02:26        0.04
  HS02004862           JUNCTION     0.02     0.05     9.43     0  02:27        0.05
  HS02004856           JUNCTION     0.08     0.11     9.53     0  02:26        0.11
  HS02004852           JUNCTION     0.01     0.03     9.54     0  02:27        0.03
  HS02004848           JUNCTION     0.01     0.03     9.63     0  02:26        0.03
  HS02004842           JUNCTION     0.33     0.36     9.63     0  02:26        0.36
  HS02004837           JUNCTION     0.03     0.05     9.63     0  02:26        0.05
  HS02004830           JUNCTION     0.04     0.06     9.53     0  02:26        0.06
  HS02004824           JUNCTION     0.02     0.04     9.45     0  02:27        0.04
  HS02004817           JUNCTION     0.44     0.53     9.37     0  02:27        0.53
  HS02004807           JUNCTION     0.12     0.20     9.37     0  02:27        0.20
  HS02004802           JUNCTION     0.16     0.24     9.37     0  02:27        0.24
  HS02004799           JUNCTION     0.12     0.25     9.46     0  02:25        0.25
  HS02004792           JUNCTION     0.03     0.09     9.62     0  02:25        0.09
  HS02004788           JUNCTION     0.02     0.07     9.97     0  02:26        0.07
  HS02004785           JUNCTION     0.05     0.13    10.03     0  02:25        0.13
  HS02004777           JUNCTION     0.15     0.24    10.04     0  02:25        0.24
  HS02004770           JUNCTION     0.12     0.21    10.04     0  02:25        0.21
  HS02004480           JUNCTION     0.08     0.19     9.43     0  02:26        0.19
  HS02004479           JUNCTION     0.11     0.23     9.43     0  02:25        0.23
  HS02004478           JUNCTION     0.06     0.12     9.35     0  02:26        0.12
  YS02001745           JUNCTION     0.59     0.85     8.37     0  04:16        0.85
  YS02001748           JUNCTION     0.96     1.30     8.38     0  04:09        1.29
  YS02001751           JUNCTION     1.15     1.85     8.73     0  02:58        1.49
  YS02001754           JUNCTION     1.40     1.86     8.47     0  02:55        1.76
  YS02001762           JUNCTION     1.60     2.01     8.41     0  04:07        1.98
  YS02001765           JUNCTION     1.56     1.96     8.41     0  04:07        1.93
  YS02001767           JUNCTION     1.52     1.91     8.40     0  04:04        1.89
  YS02001770           JUNCTION     1.51     1.90     8.39     0  04:11        1.88
  YS02001774           JUNCTION     1.58     1.96     8.39     0  04:02        1.95
  YS02001779           JUNCTION     1.33     1.68     8.37     0  03:54        1.68
  YS02001882           JUNCTION     0.36     0.63     7.35     0  03:02        0.63
  YS02001884           JUNCTION     0.46     0.73     7.34     0  03:02        0.72
  YS02001759           JUNCTION     1.64     2.05     8.42     0  04:09        2.01
  YS02001887           JUNCTION     0.54     0.81     7.34     0  03:02        0.80
  YS02001890           JUNCTION     0.57     0.83     7.34     0  03:03        0.83
  YS02001898           JUNCTION     0.33     0.59     7.33     0  03:01        0.59
  YS02001901           JUNCTION     0.45     0.72     7.33     0  03:01        0.71
  YS02001904           JUNCTION     0.43     0.69     7.32     0  03:01        0.69
  YS02001907           JUNCTION     0.76     1.05     7.34     0  02:55        1.05
  YS02001910           JUNCTION     0.55     0.82     7.32     0  03:01        0.81
  YS02001915           JUNCTION     0.35     0.60     7.32     0  03:01        0.60
  YS02001918           JUNCTION     0.11     0.25     7.32     0  03:02        0.25
  YS02001619           JUNCTION     1.11     1.57     8.50     0  03:24        1.46
  YS02001629           JUNCTION     1.47     1.85     8.40     0  03:30        1.84
  YS02001641           JUNCTION     1.57     1.94     8.37     0  04:02        1.92
  YS02001644           JUNCTION     1.58     1.92     8.35     0  03:53        1.92
  YS02001652           JUNCTION     1.42     2.16     8.76     0  03:01        1.80
  YS02001655           JUNCTION     1.18     2.20     9.05     0  02:58        1.57
  YS02001920           JUNCTION     0.21     0.33     7.33     0  03:02        0.32
  YS02001923           JUNCTION     0.08     0.12     7.38     0  03:02        0.12
  YS02001926           JUNCTION     0.17     0.23     7.67     0  03:02        0.23
  YS02001929           JUNCTION     0.09     0.12     7.81     0  03:01        0.12
  YS02001658           JUNCTION     0.91     2.17     9.31     0  03:23        1.30
  YS02001661           JUNCTION     0.69     1.36     8.77     0  04:07        1.06
  YS02001664           JUNCTION     0.30     0.56     8.49     0  04:06        0.55
  YS02001622           JUNCTION     1.14     1.55     8.46     0  03:24        1.48
  YS02001633           JUNCTION     1.56     1.94     8.40     0  04:02        1.92
  YS02001649           JUNCTION     1.61     2.05     8.44     0  04:02        1.98
  YS02001757           JUNCTION     1.74     2.16     8.42     0  04:07        2.11
  YS02001895           JUNCTION     0.33     0.59     7.33     0  03:02        0.58
  YS02001625           JUNCTION     1.42     1.78     8.38     0  03:27        1.78
  YS02163301           JUNCTION     1.50     1.88     8.40     0  04:02        1.86
  YS02163601           JUNCTION     1.61     1.99     8.39     0  04:01        1.97
  YS02164001           JUNCTION     1.55     1.92     8.38     0  04:01        1.91
  YS02001647           JUNCTION     1.41     1.80     8.41     0  04:04        1.76
  YSB1154              JUNCTION     0.25     0.38     9.43     0  02:26        0.38
  YSB6556              JUNCTION     0.15     0.26     9.43     0  02:26        0.26
  YSB1174              JUNCTION     0.21     0.32     9.43     0  02:26        0.32
  YSB1171              JUNCTION     0.41     0.53     9.43     0  02:25        0.53
  YS02006553           JUNCTION     0.77     1.07     7.35     0  03:03        1.04
  YS02006561           JUNCTION     0.18     0.39     7.05     0  02:52        0.38
  YS02006556           JUNCTION     0.74     1.02     7.33     0  03:04        1.02
  YS02006558           JUNCTION     0.78     1.06     7.32     0  03:04        1.04
  YS02001783           JUNCTION     0.35     1.57     7.72     0  02:52        0.92
  YS02001784           JUNCTION     0.39     1.67     7.74     0  02:52        0.95
  YS02001786           JUNCTION     0.34     1.99     8.02     0  02:52        0.91
  YS02001788           JUNCTION     0.28     1.57     7.54     0  02:52        0.85
  YS02001790           JUNCTION     0.37     1.96     7.60     0  02:50        1.13
  YS02001791           JUNCTION     0.32     1.69     7.16     0  02:50        1.19
  YS02001793           JUNCTION     0.43     1.96     6.79     0  02:52        1.78
  WS02004139           JUNCTION     0.56     0.70     5.61     0  03:40        0.70
  WSC                  OUTFALL      0.29     0.37     1.04     0  02:55        0.37
  3                    OUTFALL      0.10     0.23     6.23     0  00:00        0.21
  4                    OUTFALL      0.02     0.13     7.13     0  02:23        0.13
  5                    OUTFALL      0.00     0.00     5.00     0  00:00        0.00
  JK-storage           STORAGE      1.84     5.80     6.60     0  02:51        5.80
  CC-storage           STORAGE      0.95     1.37     8.37     0  05:22        1.37
  XR-storage           STORAGE      7.51     7.72     5.72     0  02:26        7.72
  
  
  *******************
  Node Inflow Summary
  *******************
  
  -------------------------------------------------------------------------------------------------
                                  Maximum  Maximum                  Lateral       Total        Flow
                                  Lateral    Total  Time of Max      Inflow      Inflow     Balance
                                   Inflow   Inflow   Occurrence      Volume      Volume       Error
  Node                 Type           LPS      LPS  days hr:min    10^6 ltr    10^6 ltr     Percent
  -------------------------------------------------------------------------------------------------
  WS02001211           JUNCTION      7.35   375.45     0  01:20       0.207        5.73       0.645
  WS02001212           JUNCTION      0.00   367.53     0  01:21           0        5.69       0.347
  WS02001213           JUNCTION      0.00   366.02     0  01:21           0        5.68       0.398
  WS02003069           JUNCTION      0.32   826.08     0  02:53     0.00902        13.7       0.200
  WS02003072           JUNCTION      0.00   825.76     0  02:53           0        13.7       0.251
  WS02003073           JUNCTION      1.82   827.47     0  02:54      0.0514        13.7       0.284
  WS02003060           JUNCTION     16.53   825.83     0  02:52       0.466        13.7       0.189
  WS02003066           JUNCTION      0.00   563.65     0  02:31           0        7.66       0.047
  WS02003059           JUNCTION      0.00   363.01     0  03:42           0        5.66       0.669
  WS02003067           JUNCTION      0.00   563.60     0  02:30           0        7.67       0.102
  WS02004401           JUNCTION      0.00   566.50     0  02:28           0        7.85       0.208
  WS02004402           JUNCTION      0.00   566.25     0  02:28           0        7.84       0.203
  WS02004403           JUNCTION      0.00   565.45     0  02:28           0        7.82       0.189
  WS02004404           JUNCTION      0.16   565.39     0  02:28     0.00457        7.81       0.147
  WS02004406           JUNCTION      0.00   565.46     0  02:29           0        7.78       0.362
  WS02004409           JUNCTION      0.00   564.61     0  02:29           0        7.75       0.149
  WS02004410           JUNCTION      0.00   564.23     0  02:29           0        7.74       0.178
  WS02004411           JUNCTION      0.00   563.96     0  02:30           0        7.72       0.190
  WS02004412           JUNCTION      0.00   563.89     0  02:30           0        7.71       0.215
  WS02004413           JUNCTION      0.00   563.70     0  02:30           0        7.69       0.331
  WS02004405           JUNCTION      0.04   565.33     0  02:28     0.00107         7.8       0.224
  WS02006109           JUNCTION      1.23   556.65     0  02:26      0.0347         7.9       0.191
  WS02006110           JUNCTION      0.00   556.64     0  02:26           0        7.88       0.159
  WS02006111           JUNCTION      0.00   580.13     0  02:27           0        7.86       0.024
  WS02006112           JUNCTION      7.75   570.75     0  02:27      0.0414         7.9       0.284
  WS02006113           JUNCTION      0.00   557.32     0  02:28           0        7.87       0.060
  WS02006115           JUNCTION      0.00   579.67     0  02:20           0        7.88       0.172
  WS02006116           JUNCTION      0.00   567.73     0  02:28           0        7.87       0.176
  WS02006230           JUNCTION     10.28   394.44     0  04:52        0.29        6.57       0.131
  WS02006231           JUNCTION      0.00   386.96     0  03:53           0        6.29       0.036
  WS02006232           JUNCTION      0.00   387.13     0  03:53           0         6.3       0.133
  WS02006234           JUNCTION      0.00   391.53     0  03:53           0         6.3      -0.002
  WS02006235           JUNCTION      0.00   394.23     0  03:52           0        6.32       0.088
  WS02006238           JUNCTION      0.00   343.36     0  05:00           0        4.31       0.042
  WS02006240           JUNCTION      0.00   337.37     0  05:00           0        4.29       0.038
  WS02006242           JUNCTION      0.00   334.45     0  05:00           0        4.29       0.053
  WS02006243           JUNCTION      0.00   338.35     0  02:11           0        4.27      -0.295
  WS02006245           JUNCTION      0.00   345.34     0  02:11           0        4.27       0.100
  WS02006247           JUNCTION      0.00   353.87     0  02:10           0        4.27       0.010
  WS02006248           JUNCTION      0.00   361.51     0  02:10           0        4.27      -0.044
  WS02006249           JUNCTION      0.00   441.93     0  02:26           0        4.69       0.069
  WS02006239           JUNCTION      0.00   341.73     0  05:00           0         4.3       0.035
  WS02006251           JUNCTION      0.08   441.88     0  02:25     0.00217        4.71       0.001
  WS02006252           JUNCTION      0.00   400.00     0  02:10           0        4.45       0.002
  WS02006253           JUNCTION      1.03    41.74     0  02:26     0.00535       0.258      -0.016
  WS02006256           JUNCTION      0.00   600.00     0  00:00           0        5.65       0.022
  WS02004138           JUNCTION      0.00   379.97     0  03:40           0        5.56       0.078
  WS02004407           JUNCTION      0.00   564.92     0  02:29           0        7.75       0.063
  WS02006228           JUNCTION      0.00   555.42     0  02:26           0        7.87       0.123
  WS02006229           JUNCTION      0.00   555.27     0  02:26           0        7.88       0.100
  WS02006280           JUNCTION      0.00   204.81     0  02:27           0        1.31       0.005
  WS02006284           JUNCTION      0.10   204.80     0  02:27      0.0027        1.31       0.088
  WS02006287           JUNCTION      0.00   204.70     0  02:27           0        1.31       0.053
  WSF200               JUNCTION      0.00   563.67     0  02:31           0        7.66       0.042
  HS02004901           JUNCTION      9.37     9.37     0  02:23      0.0498      0.0501       3.647
  HS02004881           JUNCTION      4.04    40.76     0  02:26      0.0217        0.23       0.099
  HS02004876           JUNCTION      7.43    36.75     0  02:26      0.0417       0.209       0.259
  HS02004870           JUNCTION      7.54    29.42     0  02:26      0.0411       0.167       0.066
  HS02004862           JUNCTION      7.28    22.06     0  02:26      0.0469       0.126       0.137
  HS02004856           JUNCTION      5.65    14.84     0  02:26       0.031      0.0805       1.827
  HS02004852           JUNCTION      0.00     9.33     0  02:26           0      0.0496       0.109
  HS02004848           JUNCTION     15.91    15.91     0  02:26      0.0988      0.0988       0.047
  HS02004842           JUNCTION      0.00     6.79     0  02:51           0      0.0622      26.414
  HS02004837           JUNCTION     19.22    25.66     0  02:25       0.251         0.3       0.272
  HS02004830           JUNCTION      0.15    25.80     0  02:26     0.00423        0.29       0.426
  HS02004824           JUNCTION     19.28    44.91     0  02:27       0.129       0.418       0.129
  HS02004817           JUNCTION      0.60    45.51     0  02:27      0.0169       0.435       3.988
  HS02004807           JUNCTION     13.93    58.94     0  02:27      0.0757       0.494       0.884
  HS02004802           JUNCTION      0.00    59.00     0  02:28           0       0.491       0.816
  HS02004799           JUNCTION     11.15   123.20     0  02:25      0.0613       0.713       0.360
  HS02004792           JUNCTION     47.36   112.13     0  02:24       0.263       0.652       0.064
  HS02004788           JUNCTION     17.07    65.26     0  02:25       0.132        0.39       0.100
  HS02004785           JUNCTION      0.15    48.39     0  02:25     0.00423       0.259       0.188
  HS02004777           JUNCTION      0.03    48.40     0  02:24    0.000846        0.26       2.037
  HS02004770           JUNCTION     39.46    48.64     0  02:23       0.213       0.261       1.203
  HS02004480           JUNCTION      0.00   146.07     0  02:25           0       0.837       0.127
  HS02004479           JUNCTION      0.00    23.09     0  02:27           0       0.137       0.537
  HS02004478           JUNCTION      0.00   204.69     0  02:26           0        1.31       0.032
  YS02001745           JUNCTION    149.28   212.97     0  03:20        1.44        1.44       0.773
  YS02001748           JUNCTION      0.04   325.24     0  03:20     0.00127        1.44       1.651
  YS02001751           JUNCTION      0.01   426.98     0  02:54     0.00031        1.41       1.651
  YS02001754           JUNCTION      0.26   225.83     0  02:58     0.00733        1.39       1.795
  YS02001762           JUNCTION      0.00   200.67     0  02:58           0        1.57       1.361
  YS02001765           JUNCTION      0.00   198.36     0  02:58           0        1.57       1.586
  YS02001767           JUNCTION      0.54   197.18     0  02:58      0.0151        1.59       2.314
  YS02001770           JUNCTION    187.24   196.00     0  02:58        1.65        1.66       1.957
  YS02001774           JUNCTION      0.00    32.98     0  01:57           0      0.0631      66.784
  YS02001779           JUNCTION      0.01    22.91     0  02:52    0.000141      0.0279     121.743
  YS02001882           JUNCTION      0.00    11.54     0  03:03           0      0.0113      20.848
  YS02001884           JUNCTION      0.00    15.79     0  03:11           0      0.0379      16.831
  YS02001759           JUNCTION    180.39   380.60     0  02:58        1.53        3.06       0.757
  YS02001887           JUNCTION    226.70   232.91     0  03:00        1.79        1.81       0.433
  YS02001890           JUNCTION      0.00   236.82     0  03:00           0        1.77       0.481
  YS02001898           JUNCTION      0.00   237.93     0  02:58           0        1.76       0.154
  YS02001901           JUNCTION      0.00   238.98     0  02:58           0        1.76       0.352
  YS02001904           JUNCTION      0.00   237.12     0  03:02           0        1.75       0.325
  YS02001907           JUNCTION      0.00   453.37     0  03:03           0        3.82       0.606
  YS02001910           JUNCTION      0.00   214.60     0  02:57           0        2.08       0.528
  YS02001915           JUNCTION    132.40   206.67     0  03:06        1.22        2.08       0.253
  YS02001918           JUNCTION      0.00    72.28     0  03:03           0       0.866       0.176
  YS02001619           JUNCTION    129.20   129.20     0  03:01        1.21        1.21       0.984
  YS02001629           JUNCTION      0.00   212.65     0  02:59           0        1.13       2.575
  YS02001641           JUNCTION      0.00   301.39     0  03:03           0        2.45       0.866
  YS02001644           JUNCTION    142.03   440.89     0  03:03        1.38        4.07       0.651
  YS02001652           JUNCTION      0.00   221.89     0  03:04           0        1.27       1.918
  YS02001655           JUNCTION      0.15   412.47     0  03:01     0.00434        1.29       1.702
  YS02001920           JUNCTION      2.87    67.64     0  03:02      0.0809       0.868       0.286
  YS02001923           JUNCTION      0.04    64.78     0  03:02     0.00106       0.788       0.052
  YS02001926           JUNCTION      0.05    64.97     0  03:01     0.00147       0.789       0.356
  YS02001929           JUNCTION     64.98    64.98     0  03:01       0.788       0.788       0.051
  YS02001658           JUNCTION      0.00   518.69     0  03:22           0        1.39       1.430
  YS02001661           JUNCTION      0.00   460.58     0  04:00           0        1.93       0.612
  YS02001664           JUNCTION    164.01   394.96     0  03:59        1.32        1.86       0.327
  YS02001622           JUNCTION      0.00   178.94     0  02:59           0         1.2       2.666
  YS02001633           JUNCTION    144.48   301.89     0  03:03        1.43        2.51       1.304
  YS02001649           JUNCTION      0.00   622.37     0  02:56           0         4.4       0.858
  YS02001757           JUNCTION      0.00  1094.78     0  03:02           0        8.46       1.104
  YS02001895           JUNCTION      0.00   235.23     0  02:58           0        1.76       0.240
  YS02001625           JUNCTION      0.00   212.58     0  02:59           0        1.16       3.459
  YS02163301           JUNCTION      0.00   160.55     0  03:19           0        1.11       2.228
  YS02163601           JUNCTION      0.11   301.77     0  03:03      0.0031        2.47       1.234
  YS02164001           JUNCTION      0.00   301.49     0  03:03           0        2.45       0.832
  YS02001647           JUNCTION      0.00   440.69     0  03:03           0        3.31       0.858
  YSB1154              JUNCTION     13.22    13.22     0  02:24      0.0743      0.0752       1.964
  YSB6556              JUNCTION      0.00    13.14     0  02:25           0      0.0759       1.671
  YSB1174              JUNCTION     10.23    10.23     0  02:22       0.054      0.0546       2.413
  YSB1171              JUNCTION      0.00    23.08     0  02:25           0       0.136       4.884
  YS02006553           JUNCTION      0.00   453.84     0  03:03           0        3.81       0.384
  YS02006561           JUNCTION      0.00   682.52     0  03:04           0        5.39       0.005
  YS02006556           JUNCTION      0.00   448.34     0  03:03           0        3.81       0.283
  YS02006558           JUNCTION    197.15   672.99     0  03:02        1.63        5.42       0.096
  YS02001783           JUNCTION      0.00   637.90     0  03:02           0        5.39       0.034
  YS02001784           JUNCTION      1.06   635.67     0  03:02      0.0299        5.42       0.056
  YS02001786           JUNCTION      0.06   636.48     0  03:02     0.00159        5.42       0.051
  YS02001788           JUNCTION      0.07   638.28     0  02:59       0.002        5.42       0.028
  YS02001790           JUNCTION      0.15   633.31     0  03:02     0.00437        5.42       0.031
  YS02001791           JUNCTION      0.00   633.36     0  03:02           0        5.42       0.022
  YS02001793           JUNCTION      0.00   636.80     0  02:48           0        5.42      -0.022
  WS02004139           JUNCTION      0.32   379.16     0  03:40     0.00905        5.56       0.680
  WSC                  OUTFALL       0.00   827.17     0  02:55           0        13.7       0.000
  3                    OUTFALL       0.00   597.65     0  00:00           0        3.62       0.000
  4                    OUTFALL       0.00   170.42     0  02:23           0       0.411       0.000
  5                    OUTFALL       0.00     0.00     0  00:00           0           0       0.000 ltr
  JK-storage           STORAGE       0.00   853.14     0  02:48           0        5.57     -13.021
  CC-storage           STORAGE       0.00  1094.68     0  03:01           0        8.21       0.788
  XR-storage           STORAGE     442.93   442.93     0  03:01        8.07        8.67      -0.002
  
  
  **********************
  Node Surcharge Summary
  **********************
  
  Surcharging occurs when water rises above the top of the highest conduit.
  ---------------------------------------------------------------------
                                               Max. Height   Min. Depth
                                   Hours       Above Crown    Below Rim
  Node                 Type      Surcharged         Meters       Meters
  ---------------------------------------------------------------------
  WS02006109           JUNCTION        1.83          0.171        1.649
  WS02006110           JUNCTION        0.71          0.026        1.824
  WS02006112           JUNCTION        0.83          0.089        1.591
  WS02006231           JUNCTION        0.19          0.006        1.524
  WS02006232           JUNCTION        1.68          0.149        1.331
  WS02006234           JUNCTION        0.68          0.069        1.171
  WS02006235           JUNCTION        1.02          0.113        1.177
  WS02006238           JUNCTION        1.33          0.130        1.300
  WS02006240           JUNCTION        0.50          0.056        1.334
  WS02006242           JUNCTION        0.99          0.099        0.721
  WS02006243           JUNCTION        0.28          0.008        0.762
  WS02006239           JUNCTION        0.71          0.078        1.212
  WS02006252           JUNCTION        1.71          0.193        0.907
  WS02006256           JUNCTION        0.01          1.050        0.000
  WS02006228           JUNCTION        1.71          0.204        1.996
  YS02001748           JUNCTION        4.19          0.222        0.968
  YS02001751           JUNCTION        4.64          0.855        0.345
  YS02001754           JUNCTION        5.08          0.812        0.338
  YS02001762           JUNCTION        5.50          1.014        0.136
  YS02001765           JUNCTION        5.43          0.960        0.140
  YS02001767           JUNCTION        5.33          0.913        0.117
  YS02001770           JUNCTION        5.26          0.870        0.050
  YS02001774           JUNCTION        5.49          0.965        0.085
  YS02001779           JUNCTION        5.05          0.680        0.000
  YS02001759           JUNCTION        5.53          1.051        0.159
  YS02001907           JUNCTION        0.27          0.044        0.906
  YS02001619           JUNCTION        4.56          0.566        0.044
  YS02001629           JUNCTION        4.55          0.470        0.000
  YS02001641           JUNCTION        5.48          0.936        0.164
  YS02001644           JUNCTION        5.48          0.920        0.000
  YS02001652           JUNCTION        5.16          1.130        0.000
  YS02001655           JUNCTION        4.67          1.200        0.000
  YS02001658           JUNCTION        4.21          1.173        0.127
  YS02001661           JUNCTION        0.04          0.292        1.098
  YS02001622           JUNCTION        4.67          0.551        0.069
  YS02001633           JUNCTION        5.40          0.923        0.137
  YS02001649           JUNCTION        5.51          1.050        0.000
  YS02001757           JUNCTION        5.64          1.155        0.055
  YS02001625           JUNCTION        5.23          0.780        0.000
  YS02163301           JUNCTION        5.31          0.883        0.147
  YS02163601           JUNCTION        5.51          0.989        0.091
  YS02164001           JUNCTION        5.45          0.921        0.179
  YS02001647           JUNCTION        5.21          0.799        0.101
  YS02006553           JUNCTION        0.39          0.067        1.123
  YS02001783           JUNCTION        0.21          0.774        0.826
  YS02001784           JUNCTION        0.35          0.871        0.619
  YS02001786           JUNCTION        0.22          1.185        0.245
  YS02001788           JUNCTION        0.14          0.767        0.713
  YS02001790           JUNCTION        0.98          1.157        0.000
  YS02001791           JUNCTION        1.01          0.892        1.028
  YS02001793           JUNCTION        1.15          0.959        1.641
  
  
  *********************
  Node Flooding Summary
  *********************
  
  Flooding refers to all water that overflows a node, whether it ponds or not.
  --------------------------------------------------------------------------
                                                             Total   Maximum
                                 Maximum   Time of Max       Flood    Ponded
                        Hours       Rate    Occurrence      Volume     Depth
  Node                 Flooded       LPS   days hr:min    10^6 ltr    Meters
  --------------------------------------------------------------------------
  WS02006256              0.01    406.11      0  00:00       0.001     0.000
  YS02001779              0.66      7.91      0  05:19       0.005     0.000
  YS02001629              0.01     17.94      0  03:30       0.000     0.000
  YS02001644              2.23    357.36      0  04:23       1.002     0.000
  YS02001652              0.01     66.30      0  03:03       0.000     0.000
  YS02001655              0.01    329.18      0  03:04       0.002     0.000
  YS02001649              0.01      4.81      0  04:09       0.000     0.000
  YS02001625              0.09     13.47      0  03:30       0.001     0.000
  YS02001790              0.01    143.88      0  02:50       0.000     0.000
  JK-storage              0.92    436.89      0  02:53       0.714     0.000
  XR-storage              4.54    290.61      0  05:10       2.244     0.000
  
  
  **********************
  Storage Volume Summary
  **********************
  
  --------------------------------------------------------------------------------------------------
                         Average     Avg  Evap Exfil       Maximum     Max    Time of Max    Maximum
                          Volume    Pcnt  Pcnt  Pcnt        Volume    Pcnt     Occurrence    Outflow
  Storage Unit           1000 m3    Full  Loss  Loss       1000 m3    Full    days hr:min        LPS
  --------------------------------------------------------------------------------------------------
  JK-storage               0.093      32     0     0         0.291     100       0  02:51     600.00
  CC-storage               2.635      17     0     0         3.814      24       0  05:22     400.00
  XR-storage               0.901      97     0     0         0.926     100       0  02:26     379.97
  
  
  ***********************
  Outfall Loading Summary
  ***********************
  
  -----------------------------------------------------------
                         Flow       Avg       Max       Total
                         Freq      Flow      Flow      Volume
  Outfall Node           Pcnt       LPS       LPS    10^6 ltr
  -----------------------------------------------------------
  WSC                   99.99    559.04    827.17      13.668
  3                     87.58    209.45    597.65       3.620
  4                     30.62     66.41    170.42       0.411
  5                      0.00      0.00      0.00       0.000
  -----------------------------------------------------------
  System                54.55    834.90   1406.02      17.699
  
  
  ********************
  Link Flow Summary
  ********************
  
  -----------------------------------------------------------------------------
                                 Maximum  Time of Max   Maximum    Max/    Max/
                                  |Flow|   Occurrence   |Veloc|    Full    Full
  Link                 Type          LPS  days hr:min     m/sec    Flow   Depth
  -----------------------------------------------------------------------------
  WS02003066WSF200     CONDUIT    563.67     0  02:31      2.77    0.10    0.24
  WS02006287WS02006284 CONDUIT    204.71     0  02:27      1.62    0.09    0.22
  WS02006284WS02006280 CONDUIT    204.81     0  02:27      1.86    0.09    0.20
  WS02006280WS02006229 CONDUIT    204.81     0  02:27      2.99    0.04    0.14
  WS02006229WS02006228 CONDUIT    555.42     0  02:26      1.10    1.84    1.00
  WS02006256WS02006235 CONDUIT    177.52     0  00:01      2.73    1.88    1.00
  WS02006253WS02006251 CONDUIT     53.89     0  02:58      0.43    0.16    0.97
  WS02006252WS02006251 CONDUIT    400.64     0  04:57      3.19    1.47    1.00
  WS02006251WS02006249 CONDUIT    441.93     0  02:26      1.22    1.27    0.93
  WS02006249WS02006248 CONDUIT    361.51     0  02:10      1.16    1.98    0.88
  WS02006248WS02006247 CONDUIT    353.87     0  02:10      1.12    0.77    0.93
  WS02006247WS02006245 CONDUIT    345.34     0  02:11      1.08    2.74    0.98
  WS02006245WS02006243 CONDUIT    338.35     0  02:11      1.09    1.00    0.99
  WS02006243WS02006242 CONDUIT    334.45     0  05:00      0.95    0.71    1.00
  WS02006242WS02006240 CONDUIT    337.37     0  05:00      0.90    1.34    1.00
  WS02006240WS02006239 CONDUIT    341.73     0  05:00      0.94    1.08    1.00
  WS02006239WS02006238 CONDUIT    343.36     0  05:00      0.91    1.10    1.00
  WS02006238WS02006235 CONDUIT    343.22     0  05:00      1.32    0.77    1.00
  WS02006235WS02006234 CONDUIT    391.53     0  03:53      1.04    4.13    1.00
  WS02006234WS02006232 CONDUIT    387.13     0  03:53      1.17    0.78    1.00
  WS02006232WS02006231 CONDUIT    386.96     0  03:53      1.06    0.81    1.00
  WS02006231WS02006230 CONDUIT    384.16     0  04:52      1.36    5.83    0.97
  WS02006230WS02006229 CONDUIT    394.31     0  04:53      1.02    8.78    1.00
  WS02006228WS02006109 CONDUIT    555.42     0  02:26      1.10    2.43    1.00
  WS02006116WS02004401 CONDUIT    566.50     0  02:28      0.79    0.78    0.86
  WS02006115WS02006116 CONDUIT    567.73     0  02:28      0.87    0.73    0.79
  WS02006113WS02006111 CONDUIT    580.13     0  02:27      2.49    0.70    0.47
  WS02006112WS02006115 CONDUIT    579.67     0  02:20      0.79    0.34    0.88
  WS02006111WS02006112 CONDUIT    563.43     0  02:27      1.56    0.27    0.68
  WS02006110WS02006113 CONDUIT    557.32     0  02:28      1.31    0.51    0.79
  WS02006109WS02006110 CONDUIT    556.64     0  02:26      1.11    1.07    1.00
  WS02004411WS02004412 CONDUIT    563.89     0  02:30      0.95    0.80    0.71
  WS02004401WS02004402 CONDUIT    566.25     0  02:28      0.77    0.68    0.89
  WS02004413WS02003067 CONDUIT    563.60     0  02:30      1.14    0.24    0.60
  WS02004412WS02004413 CONDUIT    563.70     0  02:30      0.85    0.38    0.79
  WS02004410WS02004411 CONDUIT    563.96     0  02:30      0.96    0.77    0.70
  WS02004409WS02004410 CONDUIT    564.23     0  02:29      0.97    0.73    0.69
  WS02004407WS02004409 CONDUIT    564.61     0  02:29      1.48    0.20    0.49
  WS02004406WS02004407 CONDUIT    564.92     0  02:29      1.07    0.25    0.64
  WS02004405WS02004406 CONDUIT    565.46     0  02:29      0.73    1.12    0.97
  WS02004404WS02004405 CONDUIT    565.30     0  02:28      0.72    5.54    0.98
  WS02004403WS02004404 CONDUIT    565.23     0  02:28      0.74    0.41    0.95
  WS02004402WS02004403 CONDUIT    565.45     0  02:28      0.76    0.81    0.90
  WS02004139WS02001211 CONDUIT    368.10     0  01:20      0.69    0.47    0.57
  WS02004138WS02004139 CONDUIT    378.84     0  03:40      2.94    0.08    0.42
  WS02003067WS02003066 CONDUIT    563.65     0  02:31      1.24    0.18    0.42
  WS02001213WS02003059 CONDUIT    363.01     0  03:42      0.67    0.60    0.72
  WS02001212WS02001213 CONDUIT    366.02     0  01:21      1.29    0.56    0.43
  WS02001211WS02001212 CONDUIT    367.53     0  01:21      0.76    0.28    0.61
  WS02003072WS02003073 CONDUIT    825.65     0  02:54      1.65    1.78    0.45
  WS02003069WS02003072 CONDUIT    825.76     0  02:53      1.56    0.40    0.48
  WS02003060WS02003069 CONDUIT    825.76     0  02:53      1.81    0.32    0.42
  WS02003059WS02003060 CONDUIT    362.93     0  03:42      0.91    0.24    0.62
  HS02004901HS02004770 CONDUIT      9.22     0  02:24      0.05    0.03    0.31
  HS02004876HS02004881 CONDUIT     36.81     0  02:26      0.59    0.39    0.09
  HS02004870HS02004876 CONDUIT     29.40     0  02:26      0.41    0.02    0.10
  HS02004842HS02004848 CONDUIT      6.79     0  02:51      0.04    0.00    0.28
  HS02004837HS02004842 CONDUIT      7.01     0  03:02      0.41    0.00    0.29
  HS02004830HS02004837 CONDUIT     25.65     0  02:26      0.46    0.03    0.08
  HS02004824HS02004830 CONDUIT     25.79     0  02:27      0.49    0.03    0.08
  HS02004817HS02004824 CONDUIT     44.91     0  02:27      0.17    0.02    0.41
  HS02004770HS02004777 CONDUIT     48.37     0  02:24      0.21    0.09    0.33
  HS02004799HS02004480 CONDUIT    123.11     0  02:25      0.58    0.16    0.31
  HS02004792HS02004799 CONDUIT    112.10     0  02:25      0.66    0.07    0.24
  HS02004788HS02004792 CONDUIT     65.23     0  02:26      0.81    0.04    0.11
  HS02004785HS02004788 CONDUIT     48.34     0  02:26      0.49    0.36    0.14
  HS02004777HS02004785 CONDUIT     48.24     0  02:25      0.26    0.06    0.26
  HS02004480HS02004478 CONDUIT    146.06     0  02:26      0.94    0.62    0.22
  HS02004479HS02004480 CONDUIT     23.22     0  02:28      0.27    0.02    0.30
  HS02004862HS02004870 CONDUIT     22.03     0  02:27      0.49    0.02    0.06
  HS02004848HS02004852 CONDUIT      9.33     0  02:26      0.33    0.01    0.04
  HS02004856HS02004862 CONDUIT     14.82     0  02:26      0.35    0.01    0.06
  HS02004852HS02004856 CONDUIT      9.30     0  02:27      0.14    0.01    0.10
  HS02004802HS02004478 CONDUIT     59.19     0  02:29      0.33    0.05    0.26
  HS02004478WS02006287 CONDUIT    204.70     0  02:27      1.31    0.06    0.17
  HS02004817HS02004807 CONDUIT     45.68     0  02:29      0.13    0.03    0.52
  HS02004807HS02004802 CONDUIT     59.00     0  02:28      0.28    0.11    0.31
  YS02001759YS02001757 CONDUIT    381.98     0  02:58      0.49    0.27    1.00
  YS02001762YS02001759 CONDUIT    202.77     0  02:58      0.26    0.23    1.00
  YS02001765YS02001762 CONDUIT    200.67     0  02:58      0.28    0.19    1.00
  YS02001770YS02001767 CONDUIT    196.64     0  02:58      0.25    0.78    1.00
  YS02001774YS02001770 CONDUIT     32.98     0  01:57      0.22    0.02    1.00
  YS02001779YS02001774 CONDUIT     22.91     0  02:52      0.05    0.01    1.00
  YS02001649YS02001757 CONDUIT    622.57     0  02:56      0.79    0.38    1.00
  YS02001767YS02001765 CONDUIT    198.36     0  02:58      0.30    0.25    1.00
  YS02006561YS02001783 CONDUIT    637.90     0  03:02      2.07    0.33    0.74
  YS02001783YS02001784 CONDUIT    634.61     0  03:02      1.50    0.87    1.00
  YS02001784YS02001785 CONDUIT    636.42     0  03:02      1.61    1.48    1.00
  YS02001788YS02001790 CONDUIT    633.16     0  03:02      2.14    0.47    1.00
  YS02001790YS02001791 CONDUIT    633.36     0  03:02      2.54    0.69    1.00
  YS02001791YS02001793 CONDUIT    636.80     0  02:48      5.17    0.27    1.00
  YS02001910YS02001907 CONDUIT    218.15     0  03:03      0.49    0.12    0.91
  YS02001786YS02001788 CONDUIT    638.21     0  02:59      2.06    1.23    1.00
  YS02001915YS02001910 CONDUIT    214.60     0  02:57      0.55    0.11    0.71
  YS02001918YS02001915 CONDUIT     82.66     0  03:06      0.44    0.05    0.43
  YS02001923YS02001920 CONDUIT     64.77     0  03:02      0.57    0.03    0.22
  YS02001926YS02001923 CONDUIT     64.74     0  03:02      0.66    0.09    0.18
  YS02001929YS02001926 CONDUIT     64.92     0  03:01      0.71    0.03    0.17
  YS02001920YS02001918 CONDUIT     72.28     0  03:03      0.57    0.07    0.29
  YS02001629YS02163301 CONDUIT    160.55     0  03:19      0.20    0.20    1.00
  YS02001619YS02001622 CONDUIT    178.94     0  02:59      0.57    0.26    1.00
  YS02001622YS02001625 CONDUIT    212.58     0  02:59      0.31    0.11    1.00
  YS02001625YS02001629 CONDUIT    212.65     0  02:59      0.27    0.10    1.00
  YS02163301YS02001633 CONDUIT    160.34     0  03:19      0.20    0.15    1.00
  YS02163601YS02164001 CONDUIT    301.49     0  03:03      0.38    0.27    1.00
  YS02164001YS02001641 CONDUIT    301.39     0  03:03      0.38    0.41    1.00
  YS02001641YS02001644 CONDUIT    301.64     0  03:03      0.38    0.98    1.00
  YS02001647YS02001649 CONDUIT    439.94     0  03:03      0.56    0.23    1.00
  YS02006553YS02006556 CONDUIT    448.34     0  03:03      0.58    0.38    0.99
  YS02006556YS02006558 CONDUIT    480.03     0  03:02      0.61    0.38    1.00
  YSB6556YSB1171       CONDUIT     13.19     0  02:28      0.06    0.01    0.57
  YS02001907YS02006553 CONDUIT    453.84     0  03:03      0.50    0.53    1.00
  YS02006558YS02006561 CONDUIT    682.52     0  03:04      3.19    1.51    0.75
  YS02001633YS02163601 CONDUIT    301.66     0  03:03      0.38    0.32    1.00
  YS02001644YS02001647 CONDUIT    440.69     0  03:03      0.56    0.26    1.00
  YS02001745YS02001748 CONDUIT    325.20     0  03:20      1.42    0.13    0.93
  YS02001748YS02001751 CONDUIT    426.97     0  02:54      1.00    0.22    1.00
  YS02001751YS02001754 CONDUIT    225.57     0  02:58      0.86    0.11    1.00
  YS02001754YS02001757 CONDUIT    228.53     0  02:58      0.33    0.09    1.00
  YS02001882YS02001884 CONDUIT     12.76     0  03:06      0.09    0.01    0.65
  YS02001884YS02001887 CONDUIT     20.46     0  03:06      0.05    0.03    0.74
  YS02001890YS02001895 CONDUIT    235.23     0  02:58      0.40    0.11    0.71
  YS02001895YS02001898 CONDUIT    237.93     0  02:58      0.53    0.41    0.57
  YS02001898YS02001901 CONDUIT    238.98     0  02:58      0.45    0.15    0.65
  YS02001901YS02001904 CONDUIT    237.12     0  03:02      0.41    0.37    0.70
  YS02001904YS02001907 CONDUIT    245.56     0  03:02      0.35    0.09    0.85
  YS02001887YS02001890 CONDUIT    236.82     0  03:00      0.36    0.41    0.79
  YS02001652YS02001649 CONDUIT    223.98     0  02:55      0.56    0.11    1.00
  YS02001655YS02001652 CONDUIT    221.89     0  03:04      0.91    0.11    1.00
  YS02001658YS02001655 CONDUIT    412.31     0  03:01      1.15    0.17    1.00
  YS02001661YS02001658 CONDUIT    518.69     0  03:22      1.49    0.20    1.00
  YS02001664YS02001661 CONDUIT    460.58     0  04:00      1.42    0.14    0.70
  YSB1154YSB6556       CONDUIT     13.14     0  02:25      0.16    0.02    0.46
  YSB1174YSB1171       CONDUIT     10.08     0  02:23      0.04    0.02    0.57
  YSB1171HS02004479    CONDUIT     23.09     0  02:27      0.54    0.02    0.44
  HS02004881HS02006253 CONDUIT     40.75     0  02:26      1.60    0.01    0.27
  YS02001793JiankangQianchi CONDUIT    853.14     0  02:48     14.25    0.07    1.00
  YS02001757CaochengTiaoxuchi CONDUIT   1094.68     0  03:01      2.14    0.48    1.00
  WSF200WS02003060     CONDUIT    563.79     0  02:31      1.82    0.13    0.33
  1                    CONDUIT    827.17     0  02:55      3.16    0.29    0.37
  2                    CONDUIT    170.42     0  02:23      5.60    0.41    0.45
  3                    CONDUIT    597.65     0  00:00     10.05    0.95    0.86
  4                    CONDUIT      0.00     0  00:00      0.00    0.00    0.00
  CC-Pump-1            PUMP       200.00     0  02:10              1.00
  CC-Pump-2            PUMP       200.00     0  02:10              1.00
  JK-Pump-1            PUMP       300.00     0  00:00              1.00
  JK-Pump-2            PUMP       300.00     0  00:00              1.00
  XR-Pump-1            PUMP        95.00     0  00:00              1.00
  XR-Pump-2            PUMP        95.00     0  00:00              1.00
  XR-Pump-3            PUMP        95.00     0  00:30              1.00
  XR-Pump-4            PUMP        95.00     0  02:20              1.00
  
  
  ***************************
  Flow Classification Summary
  ***************************
  
  -------------------------------------------------------------------------------------
                      Adjusted    ---------- Fraction of Time in Flow Class ---------- 
                       /Actual         Up    Down  Sub   Sup   Up    Down  Norm  Inlet 
  Conduit               Length    Dry  Dry   Dry   Crit  Crit  Crit  Crit  Ltd   Ctrl  
  -------------------------------------------------------------------------------------
  WS02003066WSF200        1.00   0.05  0.02  0.00  0.00  0.94  0.00  0.00  0.64  0.00
  WS02006287WS02006284    1.00   0.03  0.01  0.00  0.61  0.35  0.00  0.00  0.77  0.00
  WS02006284WS02006280    1.00   0.04  0.00  0.00  0.00  0.00  0.00  0.96  0.00  0.00
  WS02006280WS02006229    1.00   0.04  0.00  0.00  0.00  0.00  0.00  0.96  0.00  0.00
  WS02006229WS02006228    1.00   0.00  0.00  0.00  0.98  0.00  0.00  0.02  0.00  0.00
  WS02006256WS02006235    1.00   0.00  0.00  0.00  1.00  0.00  0.00  0.00  0.00  0.00
  WS02006253WS02006251    1.00   0.02  0.01  0.00  0.96  0.00  0.00  0.00  0.00  0.00
  WS02006252WS02006251    1.00   0.07  0.00  0.00  0.00  0.00  0.93  0.00  0.00  0.00
  WS02006251WS02006249    1.00   0.00  0.00  0.00  1.00  0.00  0.00  0.00  0.25  0.00
  WS02006249WS02006248    1.00   0.00  0.02  0.00  0.91  0.00  0.07  0.00  0.00  0.00
  WS02006248WS02006247    1.00   0.02  0.00  0.00  0.97  0.00  0.00  0.01  0.13  0.00
  WS02006247WS02006245    1.00   0.02  0.00  0.00  0.96  0.00  0.00  0.02  0.00  0.00
  WS02006245WS02006243    1.00   0.02  0.00  0.00  0.94  0.00  0.00  0.04  0.02  0.00
  WS02006243WS02006242    1.00   0.01  0.00  0.00  0.99  0.00  0.00  0.00  0.23  0.00
  WS02006242WS02006240    1.00   0.01  0.00  0.00  0.99  0.00  0.00  0.00  0.00  0.00
  WS02006240WS02006239    1.00   0.00  0.00  0.00  0.96  0.00  0.00  0.04  0.02  0.00
  WS02006239WS02006238    1.00   0.00  0.00  0.00  1.00  0.00  0.00  0.00  0.00  0.00
  WS02006238WS02006235    1.00   0.00  0.00  0.00  1.00  0.00  0.00  0.00  0.00  0.00
  WS02006235WS02006234    1.00   0.00  0.00  0.00  0.95  0.00  0.05  0.00  0.00  0.00
  WS02006234WS02006232    1.00   0.00  0.00  0.00  1.00  0.00  0.00  0.00  0.05  0.00
  WS02006232WS02006231    1.00   0.00  0.00  0.00  0.99  0.00  0.01  0.00  0.00  0.00
  WS02006231WS02006230    1.00   0.00  0.00  0.00  0.61  0.00  0.38  0.00  0.00  0.00
  WS02006230WS02006229    1.00   0.00  0.00  0.00  0.98  0.00  0.00  0.02  0.01  0.00
  WS02006228WS02006109    1.00   0.00  0.00  0.00  1.00  0.00  0.00  0.00  0.00  0.00
  WS02006116WS02004401    1.00   0.02  0.00  0.00  0.98  0.00  0.00  0.00  0.00  0.00
  WS02006115WS02006116    1.00   0.02  0.00  0.00  0.97  0.00  0.00  0.01  0.01  0.00
  WS02006113WS02006111    1.00   0.02  0.00  0.00  0.00  0.98  0.00  0.00  0.13  0.00
  WS02006112WS02006115    1.00   0.02  0.00  0.00  0.98  0.00  0.00  0.00  0.00  0.00
  WS02006111WS02006112    1.00   0.02  0.00  0.00  0.98  0.00  0.00  0.00  0.98  0.00
  WS02006110WS02006113    1.00   0.02  0.00  0.00  0.98  0.00  0.00  0.00  0.00  0.00
  WS02006109WS02006110    1.00   0.00  0.01  0.00  0.98  0.00  0.00  0.00  0.00  0.00
  WS02004411WS02004412    1.00   0.05  0.00  0.00  0.95  0.00  0.00  0.00  0.00  0.00
  WS02004401WS02004402    1.00   0.02  0.00  0.00  0.98  0.00  0.00  0.00  0.00  0.00
  WS02004413WS02003067    1.00   0.05  0.01  0.00  0.00  0.00  0.94  0.00  0.00  0.00
  WS02004412WS02004413    1.00   0.05  0.00  0.00  0.95  0.00  0.00  0.00  0.01  0.00
  WS02004410WS02004411    1.00   0.05  0.00  0.00  0.95  0.00  0.00  0.00  0.00  0.00
  WS02004409WS02004410    1.00   0.05  0.00  0.00  0.95  0.00  0.00  0.00  0.00  0.00
  WS02004407WS02004409    1.00   0.05  0.00  0.00  0.95  0.00  0.00  0.00  0.80  0.00
  WS02004406WS02004407    1.00   0.00  0.05  0.00  0.95  0.00  0.00  0.00  0.00  0.00
  WS02004405WS02004406    1.00   0.00  0.00  0.00  1.00  0.00  0.00  0.00  0.02  0.00
  WS02004404WS02004405    1.00   0.00  0.00  0.00  1.00  0.00  0.00  0.00  0.00  0.00
  WS02004403WS02004404    1.00   0.00  0.02  0.00  0.98  0.00  0.00  0.00  0.02  0.00
  WS02004402WS02004403    1.00   0.02  0.00  0.00  0.98  0.00  0.00  0.00  0.00  0.00
  WS02004139WS02001211    1.00   0.00  0.00  0.00  0.99  0.00  0.01  0.00  0.00  0.00
  WS02004138WS02004139    1.00   0.00  0.00  0.00  0.99  0.01  0.00  0.00  1.00  0.00
  WS02003067WS02003066    1.00   0.06  0.00  0.00  0.94  0.00  0.00  0.00  0.00  0.00
  WS02001213WS02003059    1.00   0.00  0.01  0.00  0.99  0.00  0.00  0.00  0.00  0.00
  WS02001212WS02001213    1.00   0.01  0.00  0.00  0.86  0.00  0.14  0.00  0.00  0.00
  WS02001211WS02001212    1.00   0.00  0.01  0.00  0.99  0.00  0.00  0.00  0.00  0.00
  WS02003072WS02003073    1.00   0.00  0.00  0.00  0.00  0.00  0.00  1.00  0.00  0.00
  WS02003069WS02003072    1.00   0.00  0.00  0.00  0.99  0.01  0.00  0.00  0.24  0.00
  WS02003060WS02003069    1.00   0.00  0.00  0.00  0.98  0.02  0.00  0.00  0.13  0.00
  WS02003059WS02003060    1.00   0.00  0.00  0.00  0.99  0.01  0.00  0.00  0.01  0.00
  HS02004901HS02004770    1.00   0.04  0.00  0.00  0.96  0.00  0.00  0.00  0.00  0.00
  HS02004876HS02004881    1.00   0.02  0.00  0.00  0.98  0.00  0.00  0.00  0.00  0.00
  HS02004870HS02004876    1.00   0.01  0.00  0.00  0.99  0.00  0.00  0.00  0.95  0.00
  HS02004842HS02004848    1.00   0.00  0.04  0.00  0.96  0.00  0.00  0.00  0.61  0.00
  HS02004837HS02004842    1.00   0.00  0.00  0.00  0.99  0.01  0.00  0.00  0.11  0.00
  HS02004830HS02004837    1.00   0.00  0.00  0.00  1.00  0.00  0.00  0.00  0.99  0.00
  HS02004824HS02004830    1.00   0.00  0.00  0.00  1.00  0.00  0.00  0.00  0.00  0.00
  HS02004817HS02004824    1.00   0.00  0.00  0.00  1.00  0.00  0.00  0.00  1.00  0.00
  HS02004770HS02004777    1.00   0.00  0.04  0.00  0.96  0.00  0.00  0.00  0.03  0.00
  HS02004799HS02004480    1.00   0.00  0.02  0.00  0.96  0.00  0.02  0.00  0.00  0.00
  HS02004792HS02004799    1.00   0.00  0.00  0.00  0.99  0.01  0.00  0.00  0.98  0.00
  HS02004788HS02004792    1.00   0.00  0.00  0.00  0.99  0.01  0.00  0.00  0.98  0.00
  HS02004785HS02004788    1.00   0.00  0.00  0.00  1.00  0.00  0.00  0.00  0.00  0.00
  HS02004777HS02004785    1.00   0.00  0.00  0.00  1.00  0.00  0.00  0.00  0.13  0.00
  HS02004480HS02004478    1.00   0.04  0.00  0.00  0.65  0.00  0.00  0.31  0.00  0.00
  HS02004479HS02004480    1.00   0.02  0.00  0.00  0.98  0.00  0.00  0.00  0.12  0.00
  HS02004862HS02004870    1.00   0.00  0.00  0.00  1.00  0.00  0.00  0.00  0.06  0.00
  HS02004848HS02004852    1.00   0.04  0.00  0.00  0.96  0.00  0.00  0.00  0.69  0.00
  HS02004856HS02004862    1.00   0.00  0.05  0.00  0.95  0.00  0.00  0.00  0.81  0.00
  HS02004852HS02004856    1.00   0.04  0.00  0.00  0.96  0.00  0.00  0.00  0.86  0.00
  HS02004802HS02004478    1.00   0.04  0.00  0.00  0.96  0.00  0.00  0.00  0.03  0.00
  HS02004478WS02006287    1.00   0.04  0.00  0.00  0.74  0.22  0.00  0.00  0.77  0.00
  HS02004817HS02004807    1.00   0.00  0.04  0.00  0.96  0.00  0.00  0.00  0.01  0.00
  HS02004807HS02004802    1.00   0.04  0.00  0.00  0.96  0.00  0.00  0.00  0.00  0.00
  YS02001759YS02001757    1.00   0.00  0.00  0.00  1.00  0.00  0.00  0.00  0.16  0.00
  YS02001762YS02001759    1.00   0.00  0.00  0.00  1.00  0.00  0.00  0.00  0.03  0.00
  YS02001765YS02001762    1.00   0.00  0.00  0.00  1.00  0.00  0.00  0.00  0.15  0.00
  YS02001770YS02001767    1.00   0.00  0.00  0.00  1.00  0.00  0.00  0.00  0.00  0.00
  YS02001774YS02001770    1.00   0.00  0.04  0.00  0.96  0.00  0.00  0.00  0.03  0.00
  YS02001779YS02001774    1.00   0.00  0.00  0.00  1.00  0.00  0.00  0.00  0.21  0.00
  YS02001649YS02001757    1.00   0.00  0.00  0.00  1.00  0.00  0.00  0.00  0.16  0.00
  YS02001767YS02001765    1.00   0.00  0.00  0.00  1.00  0.00  0.00  0.00  0.01  0.00
  YS02006561YS02001783    1.00   0.05  0.00  0.00  0.16  0.79  0.00  0.00  0.69  0.00
  YS02001783YS02001784    1.00   0.00  0.05  0.00  0.95  0.00  0.00  0.00  0.01  0.00
  YS02001784YS02001785    1.00   0.00  0.00  0.00  1.00  0.00  0.00  0.00  0.19  0.00
  YS02001788YS02001790    1.00   0.00  0.00  0.00  0.22  0.78  0.00  0.00  0.60  0.00
  YS02001790YS02001791    1.00   0.00  0.00  0.00  0.20  0.80  0.00  0.00  0.61  0.00
  YS02001791YS02001793    1.00   0.00  0.00  0.00  0.24  0.76  0.00  0.00  0.04  0.00
  YS02001910YS02001907    1.00   0.00  0.00  0.00  0.98  0.00  0.00  0.02  0.12  0.00
  YS02001786YS02001788    1.00   0.00  0.00  0.00  0.22  0.78  0.00  0.00  0.00  0.00
  YS02001915YS02001910    1.00   0.00  0.00  0.00  0.99  0.01  0.00  0.00  0.18  0.00
  YS02001918YS02001915    1.00   0.00  0.01  0.00  0.99  0.00  0.00  0.00  0.69  0.00
  YS02001923YS02001920    1.00   0.00  0.00  0.00  1.00  0.00  0.00  0.00  1.00  0.00
  YS02001926YS02001923    1.00   0.00  0.03  0.00  0.00  0.00  0.97  0.00  0.00  0.00
  YS02001929YS02001926    1.00   0.00  0.04  0.00  0.96  0.00  0.00  0.00  0.87  0.00
  YS02001920YS02001918    1.00   0.00  0.01  0.00  0.99  0.00  0.00  0.00  0.00  0.00
  YS02001629YS02163301    1.00   0.04  0.00  0.00  0.96  0.00  0.00  0.00  0.00  0.00
  YS02001619YS02001622    1.00   0.04  0.00  0.00  0.96  0.00  0.00  0.00  0.00  0.00
  YS02001622YS02001625    1.00   0.04  0.00  0.00  0.96  0.00  0.00  0.00  0.07  0.00
  YS02001625YS02001629    1.00   0.04  0.02  0.00  0.93  0.00  0.01  0.00  0.00  0.00
  YS02163301YS02001633    1.00   0.00  0.04  0.00  0.96  0.00  0.00  0.00  0.00  0.00
  YS02163601YS02164001    1.00   0.00  0.03  0.00  0.97  0.00  0.00  0.00  0.00  0.00
  YS02164001YS02001641    1.00   0.01  0.02  0.00  0.97  0.00  0.00  0.00  0.06  0.00
  YS02001641YS02001644    1.00   0.00  0.01  0.00  0.99  0.00  0.00  0.00  0.00  0.00
  YS02001647YS02001649    1.00   0.00  0.05  0.00  0.95  0.00  0.00  0.00  0.01  0.00
  YS02006553YS02006556    1.00   0.02  0.00  0.00  0.98  0.00  0.00  0.00  0.03  0.00
  YS02006556YS02006558    1.00   0.00  0.00  0.00  1.00  0.00  0.00  0.00  0.00  0.00
  YSB6556YSB1171          1.00   0.02  0.01  0.00  0.96  0.00  0.00  0.00  0.00  0.00
  YS02001907YS02006553    1.00   0.00  0.01  0.00  0.98  0.00  0.00  0.00  0.00  0.00
  YS02006558YS02006561    1.00   0.05  0.00  0.00  0.00  0.95  0.00  0.00  0.60  0.00
  YS02001633YS02163601    1.00   0.00  0.01  0.00  0.99  0.00  0.00  0.00  0.15  0.00
  YS02001644YS02001647    1.00   0.00  0.05  0.00  0.95  0.00  0.00  0.00  0.00  0.00
  YS02001745YS02001748    1.00   0.00  0.00  0.00  0.87  0.02  0.00  0.11  0.08  0.00
  YS02001748YS02001751    1.00   0.00  0.00  0.00  0.97  0.03  0.00  0.00  0.16  0.00
  YS02001751YS02001754    1.00   0.00  0.00  0.00  0.94  0.00  0.00  0.06  0.02  0.00
  YS02001754YS02001757    1.00   0.00  0.00  0.00  0.99  0.01  0.00  0.00  0.20  0.00
  YS02001882YS02001884    1.00   0.04  0.00  0.00  0.96  0.00  0.00  0.00  0.00  0.00
  YS02001884YS02001887    1.00   0.03  0.01  0.00  0.97  0.00  0.00  0.00  0.00  0.00
  YS02001890YS02001895    1.00   0.00  0.04  0.00  0.96  0.00  0.00  0.00  0.00  0.00
  YS02001895YS02001898    1.00   0.04  0.00  0.00  0.95  0.00  0.01  0.00  0.00  0.00
  YS02001898YS02001901    1.00   0.04  0.00  0.00  0.96  0.00  0.00  0.00  0.03  0.00
  YS02001901YS02001904    1.00   0.04  0.00  0.00  0.96  0.00  0.00  0.00  0.00  0.00
  YS02001904YS02001907    1.00   0.00  0.04  0.00  0.96  0.00  0.00  0.00  0.00  0.00
  YS02001887YS02001890    1.00   0.00  0.00  0.00  0.98  0.00  0.02  0.00  0.00  0.00
  YS02001652YS02001649    1.00   0.00  0.00  0.00  1.00  0.00  0.00  0.00  0.18  0.00
  YS02001655YS02001652    1.00   0.00  0.00  0.00  0.94  0.00  0.00  0.05  0.02  0.00
  YS02001658YS02001655    1.00   0.00  0.04  0.00  0.94  0.03  0.00  0.00  0.12  0.00
  YS02001661YS02001658    1.00   0.04  0.00  0.00  0.87  0.09  0.00  0.00  0.17  0.00
  YS02001664YS02001661    1.00   0.04  0.00  0.00  0.81  0.16  0.00  0.00  0.31  0.00
  YSB1154YSB6556          1.00   0.04  0.00  0.00  0.96  0.00  0.00  0.00  0.02  0.00
  YSB1174YSB1171          1.00   0.02  0.01  0.00  0.97  0.00  0.00  0.00  0.00  0.00
  YSB1171HS02004479       1.00   0.02  0.00  0.00  0.98  0.00  0.00  0.00  0.10  0.00
  HS02004881HS02006253    1.00   0.02  0.00  0.00  0.78  0.02  0.00  0.17  0.60  0.00
  YS02001793JiankangQianchi    1.00   0.00  0.00  0.00  0.50  0.50  0.00  0.00  0.26  0.00
  YS02001757CaochengTiaoxuchi    1.00   0.00  0.06  0.00  0.93  0.01  0.00  0.00  0.00  0.00
  WSF200WS02003060        1.00   0.00  0.05  0.00  0.49  0.46  0.00  0.00  0.20  0.00
  1                       1.00   0.00  0.00  0.00  0.00  1.00  0.00  0.00  0.38  0.00
  2                       1.00   0.69  0.00  0.00  0.00  0.31  0.00  0.00  0.06  0.00
  3                       1.00   0.12  0.00  0.00  0.00  0.88  0.00  0.00  0.05  0.00
  4                       1.00   1.00  0.00  0.00  0.00  0.00  0.00  0.00  0.00  0.00
  
  
  *************************
  Conduit Surcharge Summary
  *************************
  
  ----------------------------------------------------------------------------
                                                           Hours        Hours 
                         --------- Hours Full --------   Above Full   Capacity
  Conduit                Both Ends  Upstream  Dnstream   Normal Flow   Limited
  ----------------------------------------------------------------------------
  WS02006229WS02006228        1.71      1.98      1.71      4.64         1.71
  WS02006256WS02006235        5.86      5.86      7.68      3.72         0.01
  WS02006252WS02006251        0.93      0.93      1.71      1.51         0.01
  WS02006251WS02006249        0.01      0.01      0.01      0.99         0.01
  WS02006249WS02006248        0.01      0.01      0.01      4.28         0.01
  WS02006247WS02006245        0.01      0.01      0.01      4.78         0.01
  WS02006245WS02006243        0.01      0.01      0.28      0.01         0.01
  WS02006243WS02006242        0.34      0.34      0.99      0.01         0.01
  WS02006242WS02006240        0.50      0.50      1.38      1.74         0.01
  WS02006240WS02006239        0.61      0.61      0.71      0.05         0.01
  WS02006239WS02006238        1.23      1.24      1.33      0.10         0.08
  WS02006238WS02006235        1.23      1.23      1.61      0.01         0.01
  WS02006235WS02006234        0.68      0.68      1.02      5.87         0.01
  WS02006234WS02006232        0.79      0.79      1.68      0.01         0.01
  WS02006232WS02006231        0.19      0.19      1.68      0.01         0.01
  WS02006231WS02006230        0.01      0.01      0.34      5.90         0.01
  WS02006230WS02006229        2.73      4.28      2.73      6.02         2.73
  WS02006228WS02006109        1.83      2.43      1.83      5.28         1.83
  WS02006112WS02006115        0.01      0.01      0.83      0.01         0.01
  WS02006111WS02006112        0.01      0.01      4.75      0.01         0.01
  WS02006110WS02006113        0.01      0.01      2.22      0.01         0.01
  WS02006109WS02006110        0.71      0.71      2.43      0.72         0.01
  WS02004405WS02004406        0.01      0.01      0.01      0.80         0.01
  WS02004404WS02004405        0.01      0.01      0.01      5.98         0.01
  WS02003072WS02003073        0.01      0.01      0.01      4.94         0.01
  YS02001759YS02001757        5.53      5.53      5.64      0.01         0.01
  YS02001762YS02001759        5.50      5.50      5.53      0.01         0.01
  YS02001765YS02001762        5.43      5.43      5.50      0.01         0.01
  YS02001770YS02001767        5.32      5.32      5.33      0.01         0.56
  YS02001774YS02001770        5.26      5.26      5.49      0.01         0.01
  YS02001779YS02001774        5.05      5.05      5.49      0.01         0.01
  YS02001649YS02001757        5.51      5.51      5.64      0.01         0.01
  YS02001767YS02001765        5.33      5.33      5.43      0.01         0.01
  YS02006561YS02001783        0.01      0.01      0.21      0.01         0.01
  YS02001783YS02001784        0.21      0.21      0.35      0.01         0.02
  YS02001784YS02001785        0.22      0.35      0.22      1.10         0.20
  YS02001788YS02001790        0.14      0.14      0.98      0.01         0.01
  YS02001790YS02001791        0.98      0.98      1.01      0.01         0.01
  YS02001791YS02001793        1.01      1.01      1.34      0.01         0.01
  YS02001910YS02001907        0.01      0.01      0.27      0.01         0.01
  YS02001786YS02001788        0.14      0.22      0.14      0.60         0.12
  YS02001629YS02163301        5.24      5.24      5.31      0.01         0.01
  YS02001619YS02001622        4.56      4.56      4.67      0.01         0.03
  YS02001622YS02001625        4.67      4.67      5.23      0.01         0.01
  YS02001625YS02001629        4.55      4.55      5.23      0.01         0.01
  YS02163301YS02001633        5.31      5.31      5.46      0.01         0.01
  YS02163601YS02164001        5.45      5.45      5.51      0.01         0.01
  YS02164001YS02001641        5.45      5.45      5.48      0.01         0.02
  YS02001641YS02001644        5.48      5.48      5.48      0.01         0.85
  YS02001647YS02001649        5.21      5.21      5.51      0.01         0.01
  YS02006553YS02006556        0.01      0.01      0.39      0.01         0.01
  YS02006556YS02006558        0.03      0.03      0.52      0.01         0.01
  YS02001907YS02006553        1.13      1.13      1.36      0.01         0.01
  YS02006558YS02006561        0.01      0.01      0.01      0.94         0.01
  YS02001633YS02163601        5.40      5.40      5.51      0.01         0.01
  YS02001644YS02001647        5.21      5.21      5.48      0.01         0.01
  YS02001745YS02001748        0.01      0.01      4.18      0.01         0.01
  YS02001748YS02001751        4.29      4.29      4.63      0.01         0.01
  YS02001751YS02001754        4.63      4.63      5.08      0.01         0.01
  YS02001754YS02001757        5.18      5.18      5.64      0.01         0.01
  YS02001904YS02001907        0.01      0.01      0.45      0.01         0.01
  YS02001652YS02001649        5.21      5.21      5.51      0.01         0.01
  YS02001655YS02001652        4.67      4.67      5.16      0.01         0.01
  YS02001658YS02001655        4.21      4.21      4.67      0.01         0.01
  YS02001661YS02001658        0.04      0.04      4.21      0.01         0.01
  YS02001664YS02001661        0.01      0.01      0.44      0.01         0.01
  YS02001793JiankangQianchi        1.15      1.15      2.35      0.01         0.01
  YS02001757CaochengTiaoxuchi        4.29      4.29      5.64      0.01         0.01
  3                           0.01      0.01      0.01      0.01         0.01
  
  
  ***************
  Pumping Summary
  ***************
  
  ---------------------------------------------------------------------------------------------------------
                                                  Min       Avg       Max     Total     Power    % Time Off
                        Percent   Number of      Flow      Flow      Flow    Volume     Usage    Pump Curve
  Pump                 Utilized   Start-Ups       LPS       LPS       LPS  10^6 ltr     Kw-hr    Low   High
  ---------------------------------------------------------------------------------------------------------
  CC-Pump-1               55.31           8      0.00    126.28    200.00     1.920      4.07    0.0   18.8
  CC-Pump-2               69.23           2      0.00    135.29    200.00     2.529      4.33    0.0   16.7
  JK-Pump-1               78.73           7      0.00    144.35    300.00     2.485     33.43    0.0    0.0
  JK-Pump-2               87.24           6      0.00    171.72    300.00     3.163     44.25    0.0    0.0
  XR-Pump-1               76.59           8      0.00     63.92     95.00     1.425      8.80    0.0    0.0
  XR-Pump-2               72.33           8      0.00     69.07     95.00     1.425      9.03    0.0    0.0
  XR-Pump-3               82.96           8      0.00     60.07     95.00     1.396      8.00    0.0    0.0
  XR-Pump-4               74.46           7      0.00     62.81     95.00     1.311      6.74    0.0    0.0
  

  Analysis begun on:  Tue Dec 14 17:25:56 2021
  Analysis ended on:  Tue Dec 14 17:26:00 2021
  Total elapsed time: 00:00:04