
  EPA STORM WATER MANAGEMENT MODEL - VERSION 5.1 (Build 5.3.0.dev0)
  --------------------------------------------------------------

  WARNING 04: minimum elevation drop used for Conduit WS02004404WS02004405
  WARNING 03: negative offset ignored for Link YS02001904YS02001907
  
  *********************************************************
  NOTE: The summary statistics displayed in this report are
  based on results found at every computational time step,  
  not just on results from each reporting time step.
  *********************************************************
  
  ****************
  Analysis Options
  ****************
  Flow Units ............... LPS
  Process Models:
    Rainfall/Runoff ........ YES
    RDII ................... NO
    Snowmelt ............... NO
    Groundwater ............ NO
    Flow Routing ........... YES
    Ponding Allowed ........ NO
    Water Quality .......... NO
  Infiltration Method ...... HORTON
  Flow Routing Method ...... DYNWAVE
  Surcharge Method ......... EXTRAN
  Starting Date ............ 08/28/2015 08:00:00
  Ending Date .............. 08/28/2015 16:00:00
  Antecedent Dry Days ...... 8.0
  Report Time Step ......... 00:01:00
  Wet Time Step ............ 00:01:00
  Dry Time Step ............ 00:01:00
  Routing Time Step ........ 5.00 sec
  Variable Time Step ....... YES
  Maximum Trials ........... 8
  Number of Threads ........ 4
  Head Tolerance ........... 0.001500 m
  
  
  **************************        Volume         Depth
  Runoff Quantity Continuity     hectare-m            mm
  **************************     ---------       -------
  Total Precipitation ......         4.249         9.303
  Evaporation Loss .........         0.000         0.000
  Infiltration Loss ........         1.087         2.379
  Surface Runoff ...........         2.199         4.815
  Final Storage ............         0.964         2.110
  Continuity Error (%) .....        -0.015
  
  
  **************************        Volume        Volume
  Flow Routing Continuity        hectare-m      10^6 ltr
  **************************     ---------     ---------
  Dry Weather Inflow .......         0.630         6.296
  Wet Weather Inflow .......         2.198        21.983
  Groundwater Inflow .......         0.000         0.000
  RDII Inflow ..............         0.000         0.000
  External Inflow ..........         0.105         1.045
  External Outflow .........         2.141        21.407
  Flooding Loss ............         0.287         2.872
  Evaporation Loss .........         0.000         0.000
  Exfiltration Loss ........         0.000         0.000
  Initial Stored Volume ....         0.076         0.761
  Final Stored Volume ......         0.624         6.240
  Continuity Error (%) .....        -1.445
  
  
  *************************
  Highest Continuity Errors
  *************************
  Node YS02001774 (32.55%)
  Node HS02004842 (19.79%)
  Node YS02001884 (11.85%)
  Node JK-storage (-6.47%)
  Node YSB1171 (4.18%)
  
  
  ***************************
  Time-Step Critical Elements
  ***************************
  Link WS02006252WS02006251 (64.10%)
  Link 3 (29.04%)
  Link YS02006556YS02006558 (1.81%)
  Link WS02006280WS02006229 (1.13%)
  Link WS02006238WS02006235 (1.03%)
  
  
  ********************************
  Highest Flow Instability Indexes
  ********************************
  Link WS02006113WS02006111 (37)
  Link YS02001629YS02163301 (29)
  Link YS02163301YS02001633 (29)
  Link YS02001774YS02001770 (29)
  Link YS02163601YS02164001 (28)
  
  
  *************************
  Routing Time Step Summary
  *************************
  Minimum Time Step           :     0.50 sec
  Average Time Step           :     0.80 sec
  Maximum Time Step           :     5.00 sec
  Percent in Steady State     :    -0.00
  Average Iterations per Step :     4.29
  Percent Not Converging      :    20.68
  
  
  ***************************
  Subcatchment Runoff Summary
  ***************************
  
  ------------------------------------------------------------------------------------------------------------------------------
                            Total      Total      Total      Total     Imperv       Perv      Total       Total     Peak  Runoff
                           Precip      Runon       Evap      Infil     Runoff     Runoff     Runoff      Runoff   Runoff   Coeff
  Subcatchment                 mm         mm         mm         mm         mm         mm         mm    10^6 ltr      LPS
  ------------------------------------------------------------------------------------------------------------------------------
  sub0                       9.30       0.00       0.00       0.65       7.39       0.00       7.39        0.01     1.31   0.794
  sub1                       9.30       0.00       0.00       1.02       7.02       0.00       7.02        0.05     9.33   0.755
  sub2                       9.30       0.00       0.00       3.44       4.95       0.00       4.95        0.05     8.73   0.533
  sub3                       9.30       0.00       0.00       3.44       4.92       0.00       4.92        0.11    19.39   0.529
  sub4                       9.30       0.00       0.00       1.02       6.88       0.00       6.88        0.14    23.66   0.740
  sub5                       9.30       0.00       0.00       0.65       7.34       0.00       7.34        0.08    16.60   0.789
  sub7                       9.30       0.00       0.00       0.84       7.21       0.00       7.21        0.02     5.17   0.775
  sub8                       9.30       0.00       0.00       0.84       7.20       0.00       7.20        0.05     9.61   0.774
  sub9                       9.30       0.00       0.00       0.84       7.20       0.00       7.20        0.03     7.19   0.774
  sub10                      9.30       0.00       0.00       0.74       7.27       0.00       7.27        0.08    16.24   0.781
  sub11                      9.30       0.00       0.00       0.74       7.28       0.00       7.28        0.08    17.79   0.783
  sub12                      9.30       0.00       0.00       1.21       6.91       0.00       6.91        0.06    13.15   0.742
  sub14                      9.30       0.00       0.00       0.84       7.20       0.00       7.20        0.07    14.17   0.774
  sub15                      9.30       0.00       0.00       2.79       5.53       0.00       5.53        0.10    19.52   0.595
  sub16                      9.30       0.00       0.00       3.07       5.31       0.00       5.31        0.06    12.04   0.571
  sub17                      9.30       0.00       0.00       2.98       5.39       0.00       5.39        0.05     9.96   0.580
  sub22                      9.30       0.00       0.00       4.00       4.51       0.00       4.51        0.29    60.21   0.485
  sub23                      9.30       0.00       0.00       3.44       4.99       0.00       4.99        0.24    50.53   0.537
  sub60                      9.30       0.00       0.00       1.12       5.49       0.00       5.49        1.66   163.29   0.590
  sub61                      9.30       0.00       0.00       1.58       5.66       0.00       5.66        1.75   194.18   0.609
  sub62                      9.30       0.00       0.00       0.74       6.13       0.00       6.13        1.89   200.81   0.659
  sub63                      9.30       0.00       0.00       2.70       4.98       0.00       4.98        1.51   177.54   0.535
  sub64                      9.30       0.00       0.00       1.40       5.26       0.00       5.26        1.60   155.67   0.566
  sub65                      9.30       0.00       0.00       1.21       5.34       0.00       5.34        1.64   158.53   0.575
  sub66                      9.30       0.00       0.00       2.70       4.54       0.00       4.54        1.39   140.25   0.488
  sub67                      9.30       0.00       0.00       0.74       6.54       0.00       6.54        2.02   245.82   0.703
  sub68                      9.30       0.00       0.00       1.30       5.97       0.00       5.97        1.84   212.00   0.642
  sub69                      9.30       0.00       0.00       1.40       6.26       0.00       6.26        1.46   194.42   0.673
  sub70                      9.30       6.39       0.00       5.33       8.18       0.00       8.18        1.87   190.09   0.522
  sub71                      9.30       0.00       0.00       0.74       5.94       0.00       5.94        1.40   143.17   0.639
  sub72                      9.30       0.00       0.00       0.65       4.57       0.00       4.57        0.93    74.13   0.491
  sub73                      9.30       7.97       0.00       5.87       8.76       0.00       8.76        2.06   173.13   0.507
  sub74                      9.30       0.00       0.00       6.98       1.87       0.00       1.87        0.75   103.93   0.201
  
  
  ******************
  Node Depth Summary
  ******************
  
  ---------------------------------------------------------------------------------
                                 Average  Maximum  Maximum  Time of Max    Reported
                                   Depth    Depth      HGL   Occurrence   Max Depth
  Node                 Type       Meters   Meters   Meters  days hr:min      Meters
  ---------------------------------------------------------------------------------
  WS02001211           JUNCTION     0.70     0.73     5.57     0  02:23        0.73
  WS02001212           JUNCTION     0.42     0.45     5.52     0  02:22        0.45
  WS02001213           JUNCTION     0.65     0.72     5.48     0  02:22        0.72
  WS02003069           JUNCTION     0.47     0.56     5.15     0  02:21        0.56
  WS02003072           JUNCTION     0.53     0.62     4.99     0  02:21        0.62
  WS02003073           JUNCTION     0.32     0.38     4.45     0  02:22        0.38
  WS02003060           JUNCTION     0.42     0.50     5.43     0  02:20        0.50
  WS02003066           JUNCTION     0.24     0.31     5.86     0  02:18        0.31
  WS02003059           JUNCTION     0.71     0.78     5.46     0  02:21        0.78
  WS02003067           JUNCTION     0.60     0.72     6.04     0  02:17        0.72
  WS02004401           JUNCTION     0.70     0.89     6.89     0  02:14        0.89
  WS02004402           JUNCTION     0.73     0.91     6.87     0  02:13        0.91
  WS02004403           JUNCTION     0.75     0.92     6.85     0  02:14        0.92
  WS02004404           JUNCTION     0.83     0.99     6.84     0  02:14        0.99
  WS02004406           JUNCTION     0.83     0.98     6.81     0  02:14        0.98
  WS02004409           JUNCTION     0.52     0.70     6.47     0  02:17        0.70
  WS02004410           JUNCTION     0.54     0.71     6.43     0  02:17        0.71
  WS02004411           JUNCTION     0.55     0.72     6.40     0  02:17        0.72
  WS02004412           JUNCTION     0.57     0.72     6.36     0  02:17        0.72
  WS02004413           JUNCTION     0.73     0.88     6.35     0  02:18        0.88
  WS02004405           JUNCTION     0.82     0.98     6.83     0  02:14        0.98
  WS02006109           JUNCTION     0.79     1.01     7.63     0  02:11        1.01
  WS02006110           JUNCTION     0.78     0.95     7.53     0  02:11        0.95
  WS02006111           JUNCTION     0.23     0.30     7.00     0  02:11        0.30
  WS02006112           JUNCTION     0.88     1.18     7.06     0  02:31        1.14
  WS02006113           JUNCTION     0.36     0.47     7.37     0  02:11        0.47
  WS02006115           JUNCTION     0.60     0.79     6.93     0  02:14        0.79
  WS02006116           JUNCTION     0.68     0.87     6.91     0  02:14        0.87
  WS02006230           JUNCTION     0.77     1.06     7.81     0  02:12        1.06
  WS02006231           JUNCTION     0.51     0.73     7.85     0  02:12        0.73
  WS02006232           JUNCTION     0.65     0.85     7.89     0  02:12        0.85
  WS02006234           JUNCTION     0.57     0.78     7.94     0  02:12        0.78
  WS02006235           JUNCTION     0.60     0.80     7.97     0  02:12        0.80
  WS02006238           JUNCTION     0.63     0.83     7.97     0  02:12        0.83
  WS02006240           JUNCTION     0.52     0.73     8.03     0  03:11        0.73
  WS02006242           JUNCTION     0.57     0.80     8.07     0  03:11        0.80
  WS02006243           JUNCTION     0.45     0.69     8.11     0  03:11        0.69
  WS02006245           JUNCTION     0.43     0.66     8.15     0  03:11        0.66
  WS02006247           JUNCTION     0.44     0.67     8.17     0  03:11        0.67
  WS02006248           JUNCTION     0.39     0.60     8.19     0  03:11        0.60
  WS02006249           JUNCTION     0.42     0.62     8.21     0  03:11        0.62
  WS02006239           JUNCTION     0.58     0.79     8.00     0  02:12        0.79
  WS02006251           JUNCTION     0.40     0.64     8.31     0  03:10        0.64
  WS02006252           JUNCTION     0.34     0.59     8.83     0  03:16        0.58
  WS02006253           JUNCTION     0.43     0.67     8.31     0  03:10        0.67
  WS02006256           JUNCTION     1.08     1.21     8.15     0  02:12        1.21
  WS02004138           JUNCTION     0.16     0.17     7.42     0  00:24        0.17
  WS02004407           JUNCTION     0.24     0.31     6.62     0  02:14        0.31
  WS02006228           JUNCTION     0.79     1.06     7.71     0  02:11        1.06
  WS02006229           JUNCTION     0.77     1.06     7.75     0  02:11        1.06
  WS02006280           JUNCTION     0.07     0.16     8.43     0  02:08        0.16
  WS02006284           JUNCTION     0.37     0.50     8.90     0  02:08        0.50
  WS02006287           JUNCTION     0.10     0.23     9.19     0  02:07        0.23
  WSF200               JUNCTION     0.23     0.33     5.56     0  02:16        0.33
  HS02004901           JUNCTION     0.13     0.24    10.07     0  02:05        0.24
  HS02004881           JUNCTION     0.01     0.03     9.06     0  02:07        0.03
  HS02004876           JUNCTION     0.05     0.11     9.14     0  02:04        0.11
  HS02004870           JUNCTION     0.02     0.05     9.34     0  02:08        0.05
  HS02004862           JUNCTION     0.02     0.06     9.44     0  02:08        0.06
  HS02004856           JUNCTION     0.08     0.11     9.54     0  02:08        0.11
  HS02004852           JUNCTION     0.01     0.03     9.55     0  02:09        0.03
  HS02004848           JUNCTION     0.01     0.03     9.63     0  02:08        0.03
  HS02004842           JUNCTION     0.33     0.36     9.63     0  02:08        0.36
  HS02004837           JUNCTION     0.03     0.05     9.63     0  02:08        0.05
  HS02004830           JUNCTION     0.04     0.07     9.54     0  02:08        0.07
  HS02004824           JUNCTION     0.02     0.05     9.45     0  02:22        0.05
  HS02004817           JUNCTION     0.44     0.55     9.39     0  02:08        0.55
  HS02004807           JUNCTION     0.13     0.22     9.39     0  02:08        0.22
  HS02004802           JUNCTION     0.16     0.26     9.38     0  02:08        0.26
  HS02004799           JUNCTION     0.12     0.28     9.49     0  02:06        0.28
  HS02004792           JUNCTION     0.03     0.11     9.63     0  02:05        0.11
  HS02004788           JUNCTION     0.03     0.08     9.98     0  02:06        0.08
  HS02004785           JUNCTION     0.05     0.14    10.04     0  02:06        0.14
  HS02004777           JUNCTION     0.15     0.26    10.06     0  02:05        0.26
  HS02004770           JUNCTION     0.12     0.23    10.07     0  02:05        0.23
  HS02004480           JUNCTION     0.08     0.22     9.46     0  02:06        0.22
  HS02004479           JUNCTION     0.12     0.25     9.46     0  02:06        0.25
  HS02004478           JUNCTION     0.06     0.14     9.37     0  02:07        0.14
  YS02001745           JUNCTION     0.65     0.86     8.37     0  03:39        0.85
  YS02001748           JUNCTION     1.04     2.27     9.35     0  02:52        1.29
  YS02001751           JUNCTION     1.22     2.20     9.08     0  02:34        1.51
  YS02001754           JUNCTION     1.48     2.13     8.74     0  02:34        1.80
  YS02001762           JUNCTION     1.68     2.02     8.42     0  03:47        2.00
  YS02001765           JUNCTION     1.63     1.97     8.42     0  03:47        1.95
  YS02001767           JUNCTION     1.60     1.92     8.41     0  03:29        1.90
  YS02001770           JUNCTION     1.59     1.91     8.41     0  02:53        1.89
  YS02001774           JUNCTION     1.66     1.98     8.41     0  02:53        1.95
  YS02001779           JUNCTION     1.41     1.68     8.37     0  02:31        1.68
  YS02001882           JUNCTION     0.39     0.65     7.36     0  02:32        0.64
  YS02001884           JUNCTION     0.48     0.74     7.36     0  02:35        0.74
  YS02001759           JUNCTION     1.71     2.06     8.43     0  03:33        2.05
  YS02001887           JUNCTION     0.56     0.82     7.36     0  02:37        0.82
  YS02001890           JUNCTION     0.59     0.85     7.36     0  02:35        0.85
  YS02001898           JUNCTION     0.36     0.61     7.34     0  02:36        0.60
  YS02001901           JUNCTION     0.48     0.73     7.34     0  02:36        0.73
  YS02001904           JUNCTION     0.45     0.71     7.34     0  02:33        0.70
  YS02001907           JUNCTION     0.78     1.09     7.38     0  02:34        1.07
  YS02001910           JUNCTION     0.57     0.83     7.34     0  02:36        0.83
  YS02001915           JUNCTION     0.37     0.62     7.34     0  02:35        0.62
  YS02001918           JUNCTION     0.13     0.27     7.34     0  02:34        0.27
  YS02001619           JUNCTION     1.19     1.61     8.54     0  02:45        1.47
  YS02001629           JUNCTION     1.55     1.85     8.40     0  02:50        1.85
  YS02001641           JUNCTION     1.65     1.96     8.39     0  02:58        1.95
  YS02001644           JUNCTION     1.65     1.92     8.35     0  02:57        1.92
  YS02001652           JUNCTION     1.49     2.16     8.76     0  03:16        2.04
  YS02001655           JUNCTION     1.25     2.20     9.05     0  02:30        2.01
  YS02001920           JUNCTION     0.23     0.34     7.35     0  02:35        0.34
  YS02001923           JUNCTION     0.09     0.12     7.38     0  03:01        0.12
  YS02001926           JUNCTION     0.18     0.24     7.69     0  03:01        0.24
  YS02001929           JUNCTION     0.09     0.13     7.82     0  03:01        0.13
  YS02001658           JUNCTION     0.98     2.30     9.44     0  02:45        1.96
  YS02001661           JUNCTION     0.76     2.40     9.81     0  03:18        1.92
  YS02001664           JUNCTION     0.33     0.57     8.49     0  03:22        0.56
  YS02001622           JUNCTION     1.21     1.62     8.52     0  02:49        1.49
  YS02001633           JUNCTION     1.64     1.97     8.43     0  02:59        1.96
  YS02001649           JUNCTION     1.69     2.05     8.44     0  02:46        2.05
  YS02001757           JUNCTION     1.81     2.16     8.42     0  03:47        2.16
  YS02001895           JUNCTION     0.35     0.60     7.35     0  02:37        0.60
  YS02001625           JUNCTION     1.50     1.78     8.38     0  02:49        1.78
  YS02163301           JUNCTION     1.58     1.91     8.43     0  02:57        1.89
  YS02163601           JUNCTION     1.69     2.03     8.43     0  02:58        2.02
  YS02164001           JUNCTION     1.63     1.96     8.42     0  02:58        1.95
  YS02001647           JUNCTION     1.48     1.80     8.41     0  03:24        1.80
  YSB1154              JUNCTION     0.26     0.40     9.46     0  02:06        0.40
  YSB6556              JUNCTION     0.15     0.29     9.46     0  02:06        0.29
  YSB1174              JUNCTION     0.21     0.35     9.46     0  02:06        0.35
  YSB1171              JUNCTION     0.41     0.56     9.46     0  02:06        0.56
  YS02006553           JUNCTION     0.79     1.09     7.37     0  02:34        1.09
  YS02006561           JUNCTION     0.20     0.37     7.03     0  02:36        0.37
  YS02006556           JUNCTION     0.76     1.04     7.35     0  03:03        1.03
  YS02006558           JUNCTION     0.80     1.09     7.36     0  03:03        1.05
  YS02001783           JUNCTION     0.35     0.64     6.78     0  02:37        0.64
  YS02001784           JUNCTION     0.38     0.65     6.71     0  02:37        0.64
  YS02001786           JUNCTION     0.32     0.54     6.57     0  02:37        0.53
  YS02001788           JUNCTION     0.24     0.44     6.41     0  04:14        0.44
  YS02001790           JUNCTION     0.32     1.61     7.25     0  04:11        0.97
  YS02001791           JUNCTION     0.25     1.34     6.81     0  03:59        1.01
  YS02001793           JUNCTION     0.30     3.60     8.43     0  03:45        1.57
  WS02004139           JUNCTION     0.64     0.67     5.58     0  02:23        0.67
  WSC                  OUTFALL      0.32     0.38     1.05     0  02:22        0.38
  3                    OUTFALL      0.11     0.21     6.21     0  02:12        0.21
  4                    OUTFALL      0.01     0.12     7.12     0  03:11        0.12
  5                    OUTFALL      0.00     0.00     5.00     0  00:00        0.00
  JK-storage           STORAGE      1.54     5.58     6.38     0  04:14        5.58
  CC-storage           STORAGE      1.03     1.36     8.36     0  03:40        1.36
  XR-storage           STORAGE      6.23     7.72     5.72     0  03:24        7.72
  
  
  *******************
  Node Inflow Summary
  *******************
  
  -------------------------------------------------------------------------------------------------
                                  Maximum  Maximum                  Lateral       Total        Flow
                                  Lateral    Total  Time of Max      Inflow      Inflow     Balance
                                   Inflow   Inflow   Occurrence      Volume      Volume       Error
  Node                 Type           LPS      LPS  days hr:min    10^6 ltr    10^6 ltr     Percent
  -------------------------------------------------------------------------------------------------
  WS02001211           JUNCTION      7.35   293.21     0  03:42       0.212        8.07       0.184
  WS02001212           JUNCTION      0.00   293.84     0  03:42           0        8.06       0.102
  WS02001213           JUNCTION      0.00   294.42     0  03:42           0        8.05       0.158
  WS02003069           JUNCTION      0.32   888.63     0  02:21     0.00922        16.8       0.105
  WS02003072           JUNCTION      0.00   888.55     0  02:21           0        16.8       0.144
  WS02003073           JUNCTION      1.82   890.34     0  02:22      0.0524        16.8       0.156
  WS02003060           JUNCTION     16.53   888.44     0  02:20       0.476        16.8       0.097
  WS02003066           JUNCTION      0.00   581.21     0  02:18           0        8.31       0.045
  WS02003059           JUNCTION      0.00   295.46     0  03:41           0        8.04       0.308
  WS02003067           JUNCTION      0.00   581.20     0  02:18           0        8.32       0.097
  WS02004401           JUNCTION      0.00   583.57     0  02:12           0        8.51       0.195
  WS02004402           JUNCTION      0.00   582.84     0  02:13           0        8.49       0.189
  WS02004403           JUNCTION      0.00   582.54     0  02:12           0        8.47       0.177
  WS02004404           JUNCTION      0.16   582.67     0  02:14     0.00467        8.46       0.138
  WS02004406           JUNCTION      0.00   582.62     0  02:14           0        8.44       0.339
  WS02004409           JUNCTION      0.00   582.28     0  02:14           0         8.4       0.143
  WS02004410           JUNCTION      0.00   581.70     0  02:15           0        8.39       0.170
  WS02004411           JUNCTION      0.00   581.35     0  02:16           0        8.38       0.181
  WS02004412           JUNCTION      0.00   581.24     0  02:17           0        8.36       0.203
  WS02004413           JUNCTION      0.00   581.20     0  02:17           0        8.34       0.311
  WS02004405           JUNCTION      0.04   582.43     0  02:14      0.0011        8.45       0.207
  WS02006109           JUNCTION      1.23   574.84     0  02:12      0.0354        8.55       0.176
  WS02006110           JUNCTION      0.00   574.82     0  02:12           0        8.53       0.152
  WS02006111           JUNCTION      0.00   600.59     0  02:11           0        8.51       0.024
  WS02006112           JUNCTION      9.96   591.00     0  02:11      0.0462        8.56       0.281
  WS02006113           JUNCTION      0.00   575.43     0  02:11           0        8.52       0.056
  WS02006115           JUNCTION      0.00   600.48     0  02:16           0        8.53       0.164
  WS02006116           JUNCTION      0.00   585.01     0  02:11           0        8.52       0.149
  WS02006230           JUNCTION     10.28   392.29     0  03:20       0.296        7.09       0.157
  WS02006231           JUNCTION      0.00   381.42     0  03:20           0        6.79      -0.016
  WS02006232           JUNCTION      0.00   381.41     0  03:20           0         6.8       0.119
  WS02006234           JUNCTION      0.00   381.30     0  03:20           0         6.8       0.002
  WS02006235           JUNCTION      0.00   381.29     0  03:20           0        6.84       0.083
  WS02006238           JUNCTION      0.00   291.50     0  03:21           0         4.6       0.043
  WS02006240           JUNCTION      0.00   291.20     0  03:21           0        4.57       0.035
  WS02006242           JUNCTION      0.00   291.16     0  03:21           0        4.56       0.048
  WS02006243           JUNCTION      0.00   290.44     0  03:20           0        4.55      -0.045
  WS02006245           JUNCTION      0.00   290.22     0  03:20           0        4.55       0.038
  WS02006247           JUNCTION      0.00   290.07     0  03:20           0        4.55       0.009
  WS02006248           JUNCTION      0.00   289.88     0  03:20           0        4.55      -0.015
  WS02006249           JUNCTION      0.00   419.77     0  03:10           0        4.71       0.037
  WS02006239           JUNCTION      0.00   291.40     0  03:21           0        4.58       0.039
  WS02006251           JUNCTION      0.08   420.26     0  03:10     0.00222        4.71       0.002
  WS02006252           JUNCTION      0.00   400.00     0  03:10           0        4.45       0.002
  WS02006253           JUNCTION      1.31    52.66     0  02:07     0.00598       0.265      -0.122
  WS02006256           JUNCTION      0.00   600.00     0  02:01           0        6.74       0.026
  WS02004138           JUNCTION      0.00   285.00     0  00:40           0        7.87       0.001
  WS02004407           JUNCTION      0.00   582.40     0  02:14           0        8.41       0.060
  WS02006228           JUNCTION      0.00   573.61     0  02:12           0        8.52       0.107
  WS02006229           JUNCTION      0.00   573.34     0  02:11           0        8.53       0.097
  WS02006280           JUNCTION      0.00   255.85     0  02:08           0        1.45       0.005
  WS02006284           JUNCTION      0.10   255.84     0  02:08     0.00275        1.45       0.079
  WS02006287           JUNCTION      0.00   255.74     0  02:07           0        1.45       0.049
  WSF200               JUNCTION      0.00   581.21     0  02:18           0        8.31       0.041
  HS02004901           JUNCTION     12.04    12.04     0  02:03      0.0556      0.0558       3.250
  HS02004881           JUNCTION      5.17    51.41     0  02:07      0.0243       0.259       0.133
  HS02004876           JUNCTION      9.33    46.29     0  02:07      0.0467       0.236       0.225
  HS02004870           JUNCTION      9.61    37.07     0  02:07       0.046       0.189       0.056
  HS02004862           JUNCTION      8.93    27.74     0  02:08      0.0519       0.143       0.117
  HS02004856           JUNCTION      7.19    18.86     0  02:07      0.0346      0.0926       1.575
  HS02004852           JUNCTION      0.00    11.89     0  02:08           0       0.058       0.088
  HS02004848           JUNCTION     19.39    19.39     0  02:21       0.111       0.111       0.039
  HS02004842           JUNCTION      0.00     7.88     0  02:23           0      0.0657      24.672
  HS02004837           JUNCTION     22.59    29.54     0  02:07       0.263       0.316       0.249
  HS02004830           JUNCTION      0.15    29.68     0  02:08     0.00432       0.306       0.404
  HS02004824           JUNCTION     23.71    52.88     0  02:22       0.145        0.45       0.120
  HS02004817           JUNCTION      0.60    53.48     0  02:22      0.0173       0.467       3.703
  HS02004807           JUNCTION     17.79    69.71     0  02:09      0.0846       0.535       0.804
  HS02004802           JUNCTION      0.00    69.96     0  02:11           0        0.53       0.764
  HS02004799           JUNCTION     14.17   157.64     0  02:05      0.0685       0.792       0.306
  HS02004792           JUNCTION     60.49   143.55     0  02:05       0.293       0.724       0.056
  HS02004788           JUNCTION     21.19    83.41     0  02:05       0.143       0.432       0.089
  HS02004785           JUNCTION      0.15    62.32     0  02:05     0.00432       0.291       0.165
  HS02004777           JUNCTION      0.03    62.29     0  02:04    0.000864       0.291       1.812
  HS02004770           JUNCTION     50.53    62.45     0  02:04       0.238       0.292       1.070
  HS02004480           JUNCTION      0.00   186.85     0  02:05           0       0.932       0.121
  HS02004479           JUNCTION      0.00    29.45     0  02:07           0       0.152       0.480
  HS02004478           JUNCTION      0.00   255.74     0  02:07           0        1.45       0.029
  YS02001745           JUNCTION    163.30   422.79     0  02:52        1.66        1.69       0.679
  YS02001748           JUNCTION      0.04   568.10     0  02:52      0.0013        1.68       1.360
  YS02001751           JUNCTION      0.01   428.68     0  02:32    0.000317        1.64       1.442
  YS02001754           JUNCTION      0.26   230.58     0  02:45     0.00749        1.62       1.517
  YS02001762           JUNCTION      0.00   218.36     0  02:43           0        1.79       1.187
  YS02001765           JUNCTION      0.00   215.96     0  02:43           0         1.8       1.371
  YS02001767           JUNCTION      0.54   213.87     0  02:43      0.0154        1.82       2.020
  YS02001770           JUNCTION    200.96   210.31     0  02:43        1.89         1.9       1.694
  YS02001774           JUNCTION      0.00    43.69     0  01:55           0      0.0778      48.254
  YS02001779           JUNCTION      0.01    38.06     0  02:20    0.000144      0.0431      53.746
  YS02001882           JUNCTION      0.00    16.62     0  02:31           0      0.0154      14.401
  YS02001884           JUNCTION      0.00    25.25     0  02:31           0      0.0458      13.441
  YS02001759           JUNCTION    194.22   414.66     0  02:43        1.75        3.51       0.659
  YS02001887           JUNCTION    246.27   258.29     0  02:32        2.03        2.06       0.379
  YS02001890           JUNCTION      0.00   255.39     0  02:41           0        2.02       0.421
  YS02001898           JUNCTION      0.00   259.28     0  02:32           0           2       0.127
  YS02001901           JUNCTION      0.00   258.91     0  02:40           0           2       0.310
  YS02001904           JUNCTION      0.00   263.20     0  02:38           0           2       0.284
  YS02001907           JUNCTION      0.00   485.14     0  02:37           0         4.4       0.511
  YS02001910           JUNCTION      0.00   234.89     0  03:06           0        2.41       0.454
  YS02001915           JUNCTION    143.19   221.80     0  03:00         1.4        2.41       0.218
  YS02001918           JUNCTION      0.00    82.25     0  03:10           0        1.01       0.154
  YS02001619           JUNCTION    140.25   140.25     0  03:01        1.39        1.39       0.845
  YS02001629           JUNCTION      0.00   214.99     0  02:35           0        1.31       2.160
  YS02001641           JUNCTION      0.00   349.26     0  02:41           0        2.86       0.743
  YS02001644           JUNCTION    155.71   575.78     0  03:43         1.6        5.06       0.520
  YS02001652           JUNCTION      0.00   276.82     0  02:45           0        1.45       1.612
  YS02001655           JUNCTION      0.15   396.72     0  02:31     0.00443        1.48       1.556
  YS02001920           JUNCTION      2.87    76.89     0  03:01      0.0827        1.01       0.251
  YS02001923           JUNCTION      0.04    74.03     0  03:01     0.00109        0.93       0.046
  YS02001926           JUNCTION      0.05    74.14     0  03:01      0.0015       0.932       0.310
  YS02001929           JUNCTION     74.13    74.13     0  03:01       0.931       0.931       0.045
  YS02001658           JUNCTION      0.00   608.79     0  02:46           0        1.55       1.389
  YS02001661           JUNCTION      0.00   534.76     0  03:14           0        2.29       0.187
  YS02001664           JUNCTION    177.54   389.64     0  03:14        1.51        2.24       0.292
  YS02001622           JUNCTION      0.00   171.54     0  02:37           0        1.38       2.300
  YS02001633           JUNCTION    158.73   350.11     0  02:41        1.65        2.92       1.111
  YS02001649           JUNCTION      0.00   705.49     0  02:46           0        4.24       0.884
  YS02001757           JUNCTION      0.00  1202.34     0  02:52           0        8.61       1.084
  YS02001895           JUNCTION      0.00   261.56     0  02:32           0        2.01       0.221
  YS02001625           JUNCTION      0.00   215.00     0  02:35           0        1.35       2.940
  YS02163301           JUNCTION      0.00   197.65     0  02:41           0         1.3       1.892
  YS02163601           JUNCTION      0.11   350.03     0  02:41     0.00317        2.88       1.056
  YS02164001           JUNCTION      0.00   349.78     0  02:41           0        2.86       0.709
  YS02001647           JUNCTION      0.00   499.35     0  02:43           0        3.18       0.893
  YSB1154              JUNCTION     16.60    16.60     0  02:05      0.0831      0.0842       1.746
  YSB6556              JUNCTION      0.00    16.58     0  02:06           0      0.0849       1.487
  YSB1174              JUNCTION     13.15    13.15     0  02:03      0.0603       0.061       2.148
  YSB1171              JUNCTION      0.00    29.44     0  02:06           0       0.151       4.360
  YS02006553           JUNCTION      0.00   475.94     0  02:37           0        4.39       0.345
  YS02006561           JUNCTION      0.00   704.21     0  02:37           0        6.19       0.006
  YS02006556           JUNCTION      0.00   476.70     0  02:37           0        4.39       0.245
  YS02006558           JUNCTION    212.88   700.10     0  02:36        1.86        6.22       0.081
  YS02001783           JUNCTION      0.00   693.93     0  02:36           0        6.19       0.031
  YS02001784           JUNCTION      1.06   688.39     0  02:37      0.0305        6.22       0.049
  YS02001786           JUNCTION      0.06   681.89     0  02:37     0.00162        6.22       0.048
  YS02001788           JUNCTION      0.07   681.69     0  02:37     0.00204        6.22       0.028
  YS02001790           JUNCTION      0.15   681.43     0  02:38     0.00446        6.22       0.029
  YS02001791           JUNCTION      0.00   689.01     0  02:38           0        6.22       0.017
  YS02001793           JUNCTION      0.00  1021.50     0  03:45           0        6.24      -0.030
  WS02004139           JUNCTION      0.32   285.32     0  00:13     0.00924        7.87       0.182
  WSC                  OUTFALL       0.00   890.32     0  02:22           0        16.8       0.000
  3                    OUTFALL       0.00   516.82     0  02:12           0        4.47       0.000
  4                    OUTFALL       0.00   133.42     0  03:11           0       0.164       0.000
  5                    OUTFALL       0.00     0.00     0  00:00           0           0       0.000 ltr
  JK-storage           STORAGE       0.00  1227.52     0  03:44           0        6.39      -6.078
  CC-storage           STORAGE       0.00  1203.32     0  02:52           0        8.23       0.789
  XR-storage           STORAGE     463.70   463.70     0  03:01        8.57        9.17       0.000
  
  
  **********************
  Node Surcharge Summary
  **********************
  
  Surcharging occurs when water rises above the top of the highest conduit.
  ---------------------------------------------------------------------
                                               Max. Height   Min. Depth
                                   Hours       Above Crown    Below Rim
  Node                 Type      Surcharged         Meters       Meters
  ---------------------------------------------------------------------
  WS02006109           JUNCTION        1.63          0.190        1.630
  WS02006110           JUNCTION        0.77          0.039        1.811
  WS02006112           JUNCTION        1.19          0.182        1.498
  WS02006231           JUNCTION        0.30          0.015        1.515
  WS02006232           JUNCTION        1.54          0.149        1.331
  WS02006234           JUNCTION        1.02          0.058        1.182
  WS02006235           JUNCTION        1.42          0.094        1.196
  WS02006238           JUNCTION        1.46          0.109        1.321
  WS02006240           JUNCTION        0.63          0.023        1.367
  WS02006242           JUNCTION        1.09          0.070        0.750
  WS02006239           JUNCTION        1.05          0.048        1.242
  WS02006252           JUNCTION        0.42          0.192        0.908
  WS02006228           JUNCTION        1.62          0.230        1.970
  YS02001748           JUNCTION        4.98          1.190        0.000
  YS02001751           JUNCTION        5.29          1.200        0.000
  YS02001754           JUNCTION        5.63          1.077        0.073
  YS02001762           JUNCTION        5.88          1.024        0.126
  YS02001765           JUNCTION        5.86          0.969        0.131
  YS02001767           JUNCTION        5.84          0.925        0.105
  YS02001770           JUNCTION        5.77          0.884        0.036
  YS02001774           JUNCTION        5.87          0.985        0.065
  YS02001779           JUNCTION        5.60          0.680        0.000
  YS02001759           JUNCTION        5.90          1.061        0.149
  YS02001907           JUNCTION        0.79          0.080        0.870
  YS02001619           JUNCTION        5.25          0.610        0.000
  YS02001629           JUNCTION        5.29          0.470        0.000
  YS02001641           JUNCTION        5.87          0.957        0.143
  YS02001644           JUNCTION        5.87          0.920        0.000
  YS02001652           JUNCTION        5.65          1.130        0.000
  YS02001655           JUNCTION        5.32          1.200        0.000
  YS02001658           JUNCTION        5.01          1.300        0.000
  YS02001661           JUNCTION        0.13          1.332        0.058
  YS02001622           JUNCTION        5.35          0.620        0.000
  YS02001633           JUNCTION        5.85          0.955        0.105
  YS02001649           JUNCTION        5.89          1.050        0.000
  YS02001757           JUNCTION        5.97          1.161        0.049
  YS02001625           JUNCTION        5.66          0.780        0.000
  YS02163301           JUNCTION        5.83          0.911        0.119
  YS02163601           JUNCTION        5.89          1.031        0.049
  YS02164001           JUNCTION        5.86          0.963        0.137
  YS02001647           JUNCTION        5.66          0.799        0.101
  YS02006553           JUNCTION        0.89          0.089        1.101
  YS02001790           JUNCTION        0.03          0.806        0.351
  YS02001791           JUNCTION        0.48          0.541        1.379
  YS02001793           JUNCTION        0.88          2.600        0.000
  
  
  *********************
  Node Flooding Summary
  *********************
  
  Flooding refers to all water that overflows a node, whether it ponds or not.
  --------------------------------------------------------------------------
                                                             Total   Maximum
                                 Maximum   Time of Max       Flood    Ponded
                        Hours       Rate    Occurrence      Volume     Depth
  Node                 Flooded       LPS   days hr:min    10^6 ltr    Meters
  --------------------------------------------------------------------------
  YS02001748              0.01    119.81      0  02:53       0.000     0.000
  YS02001751              0.01    150.80      0  02:34       0.000     0.000
  YS02001779              1.34     22.03      0  02:31       0.019     0.000
  YS02001619              0.01     28.20      0  02:52       0.000     0.000
  YS02001629              0.01     35.78      0  02:51       0.001     0.000
  YS02001644              3.65    575.40      0  03:43       2.472     0.000
  YS02001652              0.01     10.30      0  03:22       0.000     0.000
  YS02001655              0.01    232.47      0  02:38       0.001     0.000
  YS02001658              0.01    231.58      0  02:46       0.001     0.000
  YS02001622              0.01     34.71      0  02:51       0.000     0.000
  YS02001649              0.02     31.52      0  03:22       0.001     0.000
  YS02001625              0.06     25.11      0  02:55       0.001     0.000
  YS02001793              0.01    357.38      0  03:45       0.000     0.000
  XR-storage              2.09    123.97      0  03:24       0.375     0.000
  
  
  **********************
  Storage Volume Summary
  **********************
  
  --------------------------------------------------------------------------------------------------
                         Average     Avg  Evap Exfil       Maximum     Max    Time of Max    Maximum
                          Volume    Pcnt  Pcnt  Pcnt        Volume    Pcnt     Occurrence    Outflow
  Storage Unit           1000 m3    Full  Loss  Loss       1000 m3    Full    days hr:min        LPS
  --------------------------------------------------------------------------------------------------
  JK-storage               0.078      27     0     0         0.280      96       0  04:14     907.71
  CC-storage               2.867      18     0     0         3.793      24       0  03:40     400.00
  XR-storage               0.747      81     0     0         0.926     100       0  03:24     285.00
  
  
  ***********************
  Outfall Loading Summary
  ***********************
  
  -----------------------------------------------------------
                         Flow       Avg       Max       Total
                         Freq      Flow      Flow      Volume
  Outfall Node           Pcnt       LPS       LPS    10^6 ltr
  -----------------------------------------------------------
  WSC                  100.00    661.12    890.32      16.769
  3                     87.75    241.73    516.82       4.474
  4                     23.53     36.31    133.42       0.164
  5                      0.00      0.00      0.00       0.000
  -----------------------------------------------------------
  System                52.82    939.16   1454.93      21.407
  
  
  ********************
  Link Flow Summary
  ********************
  
  -----------------------------------------------------------------------------
                                 Maximum  Time of Max   Maximum    Max/    Max/
                                  |Flow|   Occurrence   |Veloc|    Full    Full
  Link                 Type          LPS  days hr:min     m/sec    Flow   Depth
  -----------------------------------------------------------------------------
  WS02003066WSF200     CONDUIT    581.21     0  02:18      2.75    0.10    0.24
  WS02006287WS02006284 CONDUIT    255.75     0  02:08      1.74    0.12    0.24
  WS02006284WS02006280 CONDUIT    255.85     0  02:08      1.98    0.11    0.22
  WS02006280WS02006229 CONDUIT    255.85     0  02:08      3.19    0.05    0.16
  WS02006229WS02006228 CONDUIT    573.61     0  02:12      1.14    1.90    1.00
  WS02006256WS02006235 CONDUIT    150.05     0  01:47      2.14    1.59    1.00
  WS02006253WS02006251 CONDUIT     50.86     0  02:12      0.50    0.15    0.93
  WS02006252WS02006251 CONDUIT    400.28     0  03:18      3.19    1.47    1.00
  WS02006251WS02006249 CONDUIT    419.77     0  03:10      1.15    1.21    0.90
  WS02006249WS02006248 CONDUIT    289.88     0  03:20      1.07    1.59    0.86
  WS02006248WS02006247 CONDUIT    290.07     0  03:20      1.03    0.63    0.90
  WS02006247WS02006245 CONDUIT    290.22     0  03:20      0.99    2.30    0.94
  WS02006245WS02006243 CONDUIT    290.44     0  03:20      1.03    0.86    0.96
  WS02006243WS02006242 CONDUIT    291.16     0  03:21      0.84    0.62    1.00
  WS02006242WS02006240 CONDUIT    291.20     0  03:21      0.76    1.16    1.00
  WS02006240WS02006239 CONDUIT    291.40     0  03:21      0.76    0.92    1.00
  WS02006239WS02006238 CONDUIT    291.50     0  03:21      0.76    0.93    1.00
  WS02006238WS02006235 CONDUIT    291.52     0  03:21      0.76    0.65    1.00
  WS02006235WS02006234 CONDUIT    381.30     0  03:20      0.99    4.02    1.00
  WS02006234WS02006232 CONDUIT    381.41     0  03:20      0.99    0.77    1.00
  WS02006232WS02006231 CONDUIT    381.42     0  03:20      1.01    0.80    1.00
  WS02006231WS02006230 CONDUIT    382.01     0  03:20      1.29    5.79    0.99
  WS02006230WS02006229 CONDUIT    393.22     0  03:20      1.02    8.75    1.00
  WS02006228WS02006109 CONDUIT    573.61     0  02:12      1.14    2.51    1.00
  WS02006116WS02004401 CONDUIT    583.57     0  02:12      0.82    0.80    0.88
  WS02006115WS02006116 CONDUIT    585.01     0  02:11      0.88    0.75    0.80
  WS02006113WS02006111 CONDUIT    600.59     0  02:11      2.52    0.72    0.48
  WS02006112WS02006115 CONDUIT    600.48     0  02:16      0.81    0.35    0.89
  WS02006111WS02006112 CONDUIT    582.02     0  02:11      1.60    0.28    0.68
  WS02006110WS02006113 CONDUIT    575.43     0  02:11      1.34    0.52    0.80
  WS02006109WS02006110 CONDUIT    574.82     0  02:12      1.14    1.11    1.00
  WS02004411WS02004412 CONDUIT    581.24     0  02:17      0.96    0.83    0.72
  WS02004401WS02004402 CONDUIT    582.84     0  02:13      0.85    0.70    0.90
  WS02004413WS02003067 CONDUIT    581.20     0  02:18      1.16    0.25    0.61
  WS02004412WS02004413 CONDUIT    581.20     0  02:17      0.86    0.39    0.80
  WS02004410WS02004411 CONDUIT    581.35     0  02:16      0.97    0.79    0.71
  WS02004409WS02004410 CONDUIT    581.70     0  02:15      0.99    0.75    0.70
  WS02004407WS02004409 CONDUIT    582.28     0  02:14      1.48    0.21    0.50
  WS02004406WS02004407 CONDUIT    582.40     0  02:14      1.09    0.26    0.64
  WS02004405WS02004406 CONDUIT    582.62     0  02:14      0.79    1.15    0.98
  WS02004404WS02004405 CONDUIT    582.39     0  02:14      0.97    5.71    0.99
  WS02004403WS02004404 CONDUIT    582.50     0  02:14      0.84    0.42    0.96
  WS02004402WS02004403 CONDUIT    582.54     0  02:12      0.87    0.84    0.92
  WS02004139WS02001211 CONDUIT    285.86     0  03:42      0.57    0.36    0.54
  WS02004138WS02004139 CONDUIT    285.00     0  00:13      2.11    0.06    0.39
  WS02003067WS02003066 CONDUIT    581.21     0  02:18      1.26    0.19    0.43
  WS02001213WS02003059 CONDUIT    295.46     0  03:41      0.59    0.49    0.74
  WS02001212WS02001213 CONDUIT    294.42     0  03:42      1.19    0.45    0.42
  WS02001211WS02001212 CONDUIT    293.84     0  03:42      0.67    0.22    0.59
  WS02003072WS02003073 CONDUIT    888.52     0  02:22      1.69    1.92    0.47
  WS02003069WS02003072 CONDUIT    888.55     0  02:21      1.59    0.43    0.49
  WS02003060WS02003069 CONDUIT    888.31     0  02:21      1.84    0.35    0.44
  WS02003059WS02003060 CONDUIT    296.91     0  03:41      0.82    0.19    0.64
  HS02004901HS02004770 CONDUIT     11.93     0  02:04      0.05    0.04    0.34
  HS02004876HS02004881 CONDUIT     46.38     0  02:07      0.70    0.49    0.10
  HS02004870HS02004876 CONDUIT     37.05     0  02:08      0.48    0.02    0.11
  HS02004842HS02004848 CONDUIT      7.88     0  02:23      0.04    0.00    0.28
  HS02004837HS02004842 CONDUIT      8.01     0  02:26      0.42    0.00    0.30
  HS02004830HS02004837 CONDUIT     29.53     0  02:08      0.48    0.03    0.09
  HS02004824HS02004830 CONDUIT     29.67     0  02:09      0.52    0.04    0.08
  HS02004817HS02004824 CONDUIT     52.88     0  02:22      0.18    0.02    0.42
  HS02004770HS02004777 CONDUIT     62.26     0  02:04      0.25    0.11    0.35
  HS02004799HS02004480 CONDUIT    157.57     0  02:05      0.65    0.20    0.35
  HS02004792HS02004799 CONDUIT    143.50     0  02:05      0.75    0.09    0.27
  HS02004788HS02004792 CONDUIT     83.38     0  02:06      0.89    0.06    0.13
  HS02004785HS02004788 CONDUIT     62.29     0  02:06      0.56    0.47    0.16
  HS02004777HS02004785 CONDUIT     62.17     0  02:05      0.31    0.08    0.29
  HS02004480HS02004478 CONDUIT    186.84     0  02:06      1.04    0.79    0.26
  HS02004479HS02004480 CONDUIT     29.59     0  02:09      0.20    0.03    0.34
  HS02004862HS02004870 CONDUIT     27.72     0  02:08      0.53    0.03    0.07
  HS02004848HS02004852 CONDUIT     11.89     0  02:08      0.36    0.01    0.05
  HS02004856HS02004862 CONDUIT     18.84     0  02:08      0.39    0.02    0.07
  HS02004852HS02004856 CONDUIT     11.86     0  02:09      0.16    0.01    0.10
  HS02004802HS02004478 CONDUIT     70.25     0  02:11      0.36    0.06    0.28
  HS02004478WS02006287 CONDUIT    255.74     0  02:07      1.44    0.07    0.20
  HS02004817HS02004807 CONDUIT     53.67     0  02:23      0.14    0.03    0.55
  HS02004807HS02004802 CONDUIT     69.96     0  02:11      0.30    0.13    0.33
  YS02001759YS02001757 CONDUIT    415.97     0  02:43      0.53    0.30    1.00
  YS02001762YS02001759 CONDUIT    220.47     0  02:43      0.28    0.25    1.00
  YS02001765YS02001762 CONDUIT    218.36     0  02:43      0.28    0.20    1.00
  YS02001770YS02001767 CONDUIT    213.33     0  02:43      0.33    0.85    1.00
  YS02001774YS02001770 CONDUIT     43.69     0  01:55      0.14    0.03    1.00
  YS02001779YS02001774 CONDUIT     38.05     0  02:20      0.08    0.02    1.00
  YS02001649YS02001757 CONDUIT    705.62     0  02:46      0.90    0.43    1.00
  YS02001767YS02001765 CONDUIT    215.96     0  02:43      0.30    0.27    1.00
  YS02006561YS02001783 CONDUIT    693.93     0  02:36      2.14    0.36    0.63
  YS02001783YS02001784 CONDUIT    687.33     0  02:37      1.60    0.95    0.80
  YS02001784YS02001785 CONDUIT    681.83     0  02:37      1.72    1.59    0.74
  YS02001788YS02001790 CONDUIT    681.27     0  02:38      2.25    0.50    0.75
  YS02001790YS02001791 CONDUIT    689.01     0  02:38      2.67    0.75    1.00
  YS02001791YS02001793 CONDUIT    680.24     0  02:38      5.56    0.29    1.00
  YS02001910YS02001907 CONDUIT    244.29     0  03:06      0.49    0.14    0.92
  YS02001786YS02001788 CONDUIT    681.62     0  02:37      2.17    1.31    0.60
  YS02001915YS02001910 CONDUIT    234.89     0  03:06      0.49    0.12    0.72
  YS02001918YS02001915 CONDUIT     91.14     0  03:09      0.44    0.05    0.44
  YS02001923YS02001920 CONDUIT     74.02     0  03:01      0.60    0.03    0.23
  YS02001926YS02001923 CONDUIT     73.99     0  03:01      0.69    0.11    0.19
  YS02001929YS02001926 CONDUIT     74.09     0  03:01      0.74    0.04    0.18
  YS02001920YS02001918 CONDUIT     82.25     0  03:10      0.60    0.08    0.31
  YS02001629YS02163301 CONDUIT    197.65     0  02:41      0.25    0.24    1.00
  YS02001619YS02001622 CONDUIT    171.54     0  02:37      0.66    0.25    1.00
  YS02001622YS02001625 CONDUIT    215.00     0  02:35      0.27    0.11    1.00
  YS02001625YS02001629 CONDUIT    214.99     0  02:35      0.28    0.10    1.00
  YS02163301YS02001633 CONDUIT    197.71     0  02:41      0.25    0.19    1.00
  YS02163601YS02164001 CONDUIT    349.78     0  02:41      0.45    0.31    1.00
  YS02164001YS02001641 CONDUIT    349.26     0  02:41      0.44    0.48    1.00
  YS02001641YS02001644 CONDUIT    348.93     0  02:41      0.44    1.13    1.00
  YS02001647YS02001649 CONDUIT    498.75     0  02:41      0.64    0.26    1.00
  YS02006553YS02006556 CONDUIT    476.70     0  02:37      0.61    0.41    1.00
  YS02006556YS02006558 CONDUIT    491.29     0  02:36      0.63    0.39    1.00
  YSB6556YSB1171       CONDUIT     16.72     0  02:08      0.07    0.02    0.60
  YS02001907YS02006553 CONDUIT    475.94     0  02:37      0.53    0.56    1.00
  YS02006558YS02006561 CONDUIT    704.21     0  02:37      3.15    1.56    0.76
  YS02001633YS02163601 CONDUIT    349.92     0  02:41      0.45    0.37    1.00
  YS02001644YS02001647 CONDUIT    499.35     0  02:43      0.64    0.29    1.00
  YS02001745YS02001748 CONDUIT    568.05     0  02:52      1.52    0.22    0.93
  YS02001748YS02001751 CONDUIT    428.66     0  02:32      1.11    0.22    1.00
  YS02001751YS02001754 CONDUIT    230.32     0  02:45      0.94    0.11    1.00
  YS02001754YS02001757 CONDUIT    230.35     0  02:45      0.33    0.09    1.00
  YS02001882YS02001884 CONDUIT     18.30     0  03:09      0.09    0.02    0.67
  YS02001884YS02001887 CONDUIT     27.39     0  03:09      0.06    0.04    0.76
  YS02001890YS02001895 CONDUIT    261.56     0  02:32      0.44    0.12    0.72
  YS02001895YS02001898 CONDUIT    259.28     0  02:32      0.56    0.45    0.59
  YS02001898YS02001901 CONDUIT    258.91     0  02:40      0.47    0.17    0.67
  YS02001901YS02001904 CONDUIT    263.20     0  02:38      0.44    0.41    0.72
  YS02001904YS02001907 CONDUIT    265.28     0  02:36      0.37    0.09    0.85
  YS02001887YS02001890 CONDUIT    255.39     0  02:41      0.38    0.44    0.81
  YS02001652YS02001649 CONDUIT    276.64     0  02:45      0.44    0.14    1.00
  YS02001655YS02001652 CONDUIT    276.82     0  02:45      1.01    0.13    1.00
  YS02001658YS02001655 CONDUIT    396.56     0  02:31      1.28    0.17    1.00
  YS02001661YS02001658 CONDUIT    608.79     0  02:46      1.59    0.24    1.00
  YS02001664YS02001661 CONDUIT    534.76     0  03:14      1.47    0.17    0.70
  YSB1154YSB6556       CONDUIT     16.58     0  02:06      0.18    0.03    0.49
  YSB1174YSB1171       CONDUIT     13.03     0  02:02      0.05    0.02    0.61
  YSB1171HS02004479    CONDUIT     29.45     0  02:07      0.54    0.02    0.47
  HS02004881HS02006253 CONDUIT     51.41     0  02:07      1.74    0.01    0.24
  YS02001793JiankangQianchi CONDUIT   1227.52     0  03:44     16.39    0.10    1.00
  YS02001757CaochengTiaoxuchi CONDUIT   1203.32     0  02:52      2.20    0.53    1.00
  WSF200WS02003060     CONDUIT    581.27     0  02:18      1.69    0.13    0.34
  1                    CONDUIT    890.32     0  02:22      3.22    0.31    0.38
  2                    CONDUIT    133.42     0  03:11      5.25    0.32    0.39
  3                    CONDUIT    516.82     0  02:12      9.84    0.82    0.70
  4                    CONDUIT      0.00     0  00:00      0.00    0.00    0.00
  CC-Pump-1            PUMP       200.00     0  01:56              1.00
  CC-Pump-2            PUMP       200.00     0  03:10              1.00
  JK-Pump-1            PUMP       300.00     0  00:10              1.00
  JK-Pump-2            PUMP       300.00     0  02:01              1.00
  XR-Pump-1            PUMP        95.00     0  00:10              1.00
  XR-Pump-2            PUMP        95.00     0  00:10              1.00
  XR-Pump-3            PUMP        95.00     0  00:50              1.00
  XR-Pump-4            PUMP        95.00     0  00:10              1.00
  
  
  ***************************
  Flow Classification Summary
  ***************************
  
  -------------------------------------------------------------------------------------
                      Adjusted    ---------- Fraction of Time in Flow Class ---------- 
                       /Actual         Up    Down  Sub   Sup   Up    Down  Norm  Inlet 
  Conduit               Length    Dry  Dry   Dry   Crit  Crit  Crit  Crit  Ltd   Ctrl  
  -------------------------------------------------------------------------------------
  WS02003066WSF200        1.00   0.05  0.00  0.00  0.00  0.95  0.00  0.00  0.64  0.00
  WS02006287WS02006284    1.00   0.03  0.01  0.00  0.59  0.37  0.00  0.00  0.72  0.00
  WS02006284WS02006280    1.00   0.04  0.00  0.00  0.00  0.00  0.00  0.96  0.00  0.00
  WS02006280WS02006229    1.00   0.04  0.00  0.00  0.00  0.00  0.00  0.96  0.00  0.00
  WS02006229WS02006228    1.00   0.00  0.00  0.00  1.00  0.00  0.00  0.00  0.00  0.00
  WS02006256WS02006235    1.00   0.00  0.00  0.00  1.00  0.00  0.00  0.00  0.00  0.00
  WS02006253WS02006251    1.00   0.03  0.01  0.00  0.96  0.00  0.00  0.00  0.00  0.00
  WS02006252WS02006251    1.00   0.07  0.00  0.00  0.00  0.00  0.93  0.00  0.00  0.00
  WS02006251WS02006249    1.00   0.00  0.00  0.00  1.00  0.00  0.00  0.00  0.23  0.00
  WS02006249WS02006248    1.00   0.00  0.01  0.00  0.92  0.00  0.07  0.00  0.00  0.00
  WS02006248WS02006247    1.00   0.01  0.00  0.00  0.98  0.00  0.00  0.01  0.13  0.00
  WS02006247WS02006245    1.00   0.01  0.00  0.00  0.99  0.00  0.00  0.00  0.00  0.00
  WS02006245WS02006243    1.00   0.01  0.00  0.00  0.96  0.00  0.00  0.03  0.01  0.00
  WS02006243WS02006242    1.00   0.00  0.00  0.00  0.99  0.00  0.00  0.00  0.20  0.00
  WS02006242WS02006240    1.00   0.00  0.00  0.00  1.00  0.00  0.00  0.00  0.00  0.00
  WS02006240WS02006239    1.00   0.00  0.00  0.00  0.97  0.00  0.00  0.03  0.01  0.00
  WS02006239WS02006238    1.00   0.00  0.00  0.00  1.00  0.00  0.00  0.00  0.00  0.00
  WS02006238WS02006235    1.00   0.00  0.00  0.00  1.00  0.00  0.00  0.00  0.00  0.00
  WS02006235WS02006234    1.00   0.00  0.00  0.00  0.97  0.00  0.03  0.00  0.00  0.00
  WS02006234WS02006232    1.00   0.00  0.00  0.00  1.00  0.00  0.00  0.00  0.00  0.00
  WS02006232WS02006231    1.00   0.00  0.00  0.00  1.00  0.00  0.00  0.00  0.00  0.00
  WS02006231WS02006230    1.00   0.00  0.00  0.00  0.49  0.00  0.51  0.00  0.00  0.00
  WS02006230WS02006229    1.00   0.00  0.00  0.00  0.99  0.00  0.00  0.01  0.01  0.00
  WS02006228WS02006109    1.00   0.00  0.00  0.00  1.00  0.00  0.00  0.00  0.00  0.00
  WS02006116WS02004401    1.00   0.02  0.00  0.00  0.98  0.00  0.00  0.00  0.00  0.00
  WS02006115WS02006116    1.00   0.02  0.00  0.00  0.98  0.00  0.00  0.00  0.00  0.00
  WS02006113WS02006111    1.00   0.01  0.00  0.00  0.00  0.99  0.00  0.00  0.12  0.00
  WS02006112WS02006115    1.00   0.01  0.01  0.00  0.98  0.00  0.00  0.00  0.00  0.00
  WS02006111WS02006112    1.00   0.01  0.00  0.00  0.98  0.00  0.00  0.00  0.97  0.00
  WS02006110WS02006113    1.00   0.00  0.01  0.00  0.99  0.00  0.00  0.00  0.00  0.00
  WS02006109WS02006110    1.00   0.00  0.00  0.00  0.99  0.00  0.01  0.00  0.00  0.00
  WS02004411WS02004412    1.00   0.03  0.00  0.00  0.97  0.00  0.00  0.00  0.00  0.00
  WS02004401WS02004402    1.00   0.02  0.00  0.00  0.98  0.00  0.00  0.00  0.00  0.00
  WS02004413WS02003067    1.00   0.03  0.01  0.00  0.00  0.00  0.96  0.00  0.00  0.00
  WS02004412WS02004413    1.00   0.03  0.00  0.00  0.97  0.00  0.00  0.00  0.02  0.00
  WS02004410WS02004411    1.00   0.03  0.00  0.00  0.97  0.00  0.00  0.00  0.02  0.00
  WS02004409WS02004410    1.00   0.03  0.00  0.00  0.97  0.00  0.00  0.00  0.03  0.00
  WS02004407WS02004409    1.00   0.03  0.00  0.00  0.97  0.00  0.00  0.00  0.92  0.00
  WS02004406WS02004407    1.00   0.00  0.03  0.00  0.97  0.00  0.00  0.00  0.00  0.00
  WS02004405WS02004406    1.00   0.00  0.00  0.00  1.00  0.00  0.00  0.00  0.01  0.00
  WS02004404WS02004405    1.00   0.00  0.00  0.00  1.00  0.00  0.00  0.00  0.00  0.00
  WS02004403WS02004404    1.00   0.00  0.02  0.00  0.98  0.00  0.00  0.00  0.00  0.00
  WS02004402WS02004403    1.00   0.02  0.00  0.00  0.98  0.00  0.00  0.00  0.00  0.00
  WS02004139WS02001211    1.00   0.00  0.00  0.00  1.00  0.00  0.00  0.00  0.00  0.00
  WS02004138WS02004139    1.00   0.00  0.00  0.00  0.99  0.01  0.00  0.00  0.99  0.00
  WS02003067WS02003066    1.00   0.04  0.00  0.00  0.95  0.00  0.00  0.00  0.00  0.00
  WS02001213WS02003059    1.00   0.00  0.00  0.00  1.00  0.00  0.00  0.00  0.00  0.00
  WS02001212WS02001213    1.00   0.00  0.00  0.00  0.91  0.00  0.08  0.00  0.00  0.00
  WS02001211WS02001212    1.00   0.00  0.00  0.00  1.00  0.00  0.00  0.00  0.00  0.00
  WS02003072WS02003073    1.00   0.00  0.00  0.00  0.00  0.00  0.00  1.00  0.00  0.00
  WS02003069WS02003072    1.00   0.00  0.00  0.00  1.00  0.00  0.00  0.00  0.23  0.00
  WS02003060WS02003069    1.00   0.00  0.00  0.00  0.99  0.01  0.00  0.00  0.03  0.00
  WS02003059WS02003060    1.00   0.00  0.00  0.00  1.00  0.00  0.00  0.00  0.01  0.00
  HS02004901HS02004770    1.00   0.04  0.00  0.00  0.96  0.00  0.00  0.00  0.01  0.00
  HS02004876HS02004881    1.00   0.01  0.00  0.00  0.99  0.00  0.00  0.00  0.00  0.00
  HS02004870HS02004876    1.00   0.00  0.00  0.00  0.99  0.01  0.00  0.00  0.95  0.00
  HS02004842HS02004848    1.00   0.00  0.04  0.00  0.96  0.00  0.00  0.00  0.62  0.00
  HS02004837HS02004842    1.00   0.00  0.00  0.00  1.00  0.00  0.00  0.00  0.11  0.00
  HS02004830HS02004837    1.00   0.00  0.00  0.00  1.00  0.00  0.00  0.00  0.99  0.00
  HS02004824HS02004830    1.00   0.00  0.00  0.00  1.00  0.00  0.00  0.00  0.00  0.00
  HS02004817HS02004824    1.00   0.00  0.00  0.00  1.00  0.00  0.00  0.00  1.00  0.00
  HS02004770HS02004777    1.00   0.00  0.04  0.00  0.96  0.00  0.00  0.00  0.04  0.00
  HS02004799HS02004480    1.00   0.00  0.02  0.00  0.95  0.00  0.02  0.00  0.00  0.00
  HS02004792HS02004799    1.00   0.00  0.00  0.00  1.00  0.00  0.00  0.00  0.98  0.00
  HS02004788HS02004792    1.00   0.00  0.00  0.00  1.00  0.00  0.00  0.00  0.98  0.00
  HS02004785HS02004788    1.00   0.00  0.00  0.00  1.00  0.00  0.00  0.00  0.00  0.00
  HS02004777HS02004785    1.00   0.00  0.00  0.00  1.00  0.00  0.00  0.00  0.15  0.00
  HS02004480HS02004478    1.00   0.04  0.00  0.00  0.63  0.00  0.00  0.33  0.00  0.00
  HS02004479HS02004480    1.00   0.02  0.00  0.00  0.98  0.00  0.00  0.00  0.12  0.00
  HS02004862HS02004870    1.00   0.00  0.00  0.00  1.00  0.00  0.00  0.00  0.05  0.00
  HS02004848HS02004852    1.00   0.04  0.00  0.00  0.96  0.00  0.00  0.00  0.74  0.00
  HS02004856HS02004862    1.00   0.00  0.05  0.00  0.95  0.00  0.00  0.00  0.80  0.00
  HS02004852HS02004856    1.00   0.04  0.00  0.00  0.96  0.00  0.00  0.00  0.86  0.00
  HS02004802HS02004478    1.00   0.04  0.00  0.00  0.96  0.00  0.00  0.00  0.03  0.00
  HS02004478WS02006287    1.00   0.05  0.00  0.00  0.73  0.22  0.00  0.00  0.70  0.00
  HS02004817HS02004807    1.00   0.00  0.04  0.00  0.96  0.00  0.00  0.00  0.01  0.00
  HS02004807HS02004802    1.00   0.04  0.00  0.00  0.96  0.00  0.00  0.00  0.00  0.00
  YS02001759YS02001757    1.00   0.00  0.00  0.00  1.00  0.00  0.00  0.00  0.16  0.00
  YS02001762YS02001759    1.00   0.00  0.00  0.00  1.00  0.00  0.00  0.00  0.04  0.00
  YS02001765YS02001762    1.00   0.00  0.00  0.00  1.00  0.00  0.00  0.00  0.17  0.00
  YS02001770YS02001767    1.00   0.00  0.00  0.00  1.00  0.00  0.00  0.00  0.00  0.00
  YS02001774YS02001770    1.00   0.00  0.04  0.00  0.96  0.00  0.00  0.00  0.05  0.00
  YS02001779YS02001774    1.00   0.00  0.00  0.00  1.00  0.00  0.00  0.00  0.20  0.00
  YS02001649YS02001757    1.00   0.00  0.00  0.00  1.00  0.00  0.00  0.00  0.17  0.00
  YS02001767YS02001765    1.00   0.00  0.00  0.00  1.00  0.00  0.00  0.00  0.00  0.00
  YS02006561YS02001783    1.00   0.05  0.00  0.00  0.00  0.95  0.00  0.00  0.56  0.00
  YS02001783YS02001784    1.00   0.00  0.05  0.00  0.95  0.00  0.00  0.00  0.00  0.00
  YS02001784YS02001785    1.00   0.00  0.00  0.00  1.00  0.00  0.00  0.00  0.19  0.00
  YS02001788YS02001790    1.00   0.00  0.00  0.00  0.16  0.84  0.00  0.00  0.61  0.00
  YS02001790YS02001791    1.00   0.00  0.00  0.00  0.13  0.87  0.00  0.00  0.59  0.00
  YS02001791YS02001793    1.00   0.00  0.00  0.00  0.17  0.83  0.00  0.00  0.03  0.00
  YS02001910YS02001907    1.00   0.00  0.00  0.00  0.98  0.00  0.00  0.02  0.12  0.00
  YS02001786YS02001788    1.00   0.00  0.00  0.00  0.12  0.88  0.00  0.00  0.00  0.00
  YS02001915YS02001910    1.00   0.00  0.00  0.00  0.98  0.02  0.00  0.00  0.18  0.00
  YS02001918YS02001915    1.00   0.00  0.00  0.00  0.98  0.01  0.00  0.00  0.65  0.00
  YS02001923YS02001920    1.00   0.00  0.00  0.00  1.00  0.00  0.00  0.00  1.00  0.00
  YS02001926YS02001923    1.00   0.00  0.03  0.00  0.00  0.00  0.97  0.00  0.00  0.00
  YS02001929YS02001926    1.00   0.00  0.04  0.00  0.96  0.00  0.00  0.00  0.87  0.00
  YS02001920YS02001918    1.00   0.00  0.00  0.00  1.00  0.00  0.00  0.00  0.00  0.00
  YS02001629YS02163301    1.00   0.05  0.00  0.00  0.95  0.00  0.00  0.00  0.00  0.00
  YS02001619YS02001622    1.00   0.04  0.00  0.00  0.96  0.00  0.00  0.00  0.00  0.00
  YS02001622YS02001625    1.00   0.04  0.00  0.00  0.96  0.00  0.00  0.00  0.07  0.00
  YS02001625YS02001629    1.00   0.04  0.01  0.00  0.93  0.00  0.02  0.00  0.00  0.00
  YS02163301YS02001633    1.00   0.00  0.05  0.00  0.95  0.00  0.00  0.00  0.00  0.00
  YS02163601YS02164001    1.00   0.00  0.03  0.00  0.97  0.00  0.00  0.00  0.00  0.00
  YS02164001YS02001641    1.00   0.00  0.03  0.00  0.97  0.00  0.00  0.00  0.06  0.00
  YS02001641YS02001644    1.00   0.00  0.00  0.00  1.00  0.00  0.00  0.00  0.00  0.00
  YS02001647YS02001649    1.00   0.00  0.05  0.00  0.95  0.00  0.00  0.00  0.01  0.00
  YS02006553YS02006556    1.00   0.00  0.00  0.00  1.00  0.00  0.00  0.00  0.03  0.00
  YS02006556YS02006558    1.00   0.00  0.00  0.00  1.00  0.00  0.00  0.00  0.00  0.00
  YSB6556YSB1171          1.00   0.02  0.01  0.00  0.96  0.00  0.00  0.00  0.00  0.00
  YS02001907YS02006553    1.00   0.00  0.01  0.00  0.99  0.00  0.00  0.00  0.00  0.00
  YS02006558YS02006561    1.00   0.05  0.00  0.00  0.00  0.95  0.00  0.00  0.56  0.00
  YS02001633YS02163601    1.00   0.00  0.00  0.00  1.00  0.00  0.00  0.00  0.16  0.00
  YS02001644YS02001647    1.00   0.00  0.05  0.00  0.95  0.00  0.00  0.00  0.00  0.00
  YS02001745YS02001748    1.00   0.00  0.00  0.00  0.89  0.01  0.00  0.10  0.05  0.00
  YS02001748YS02001751    1.00   0.00  0.00  0.00  0.98  0.02  0.00  0.00  0.15  0.00
  YS02001751YS02001754    1.00   0.00  0.00  0.00  0.94  0.00  0.00  0.06  0.02  0.00
  YS02001754YS02001757    1.00   0.00  0.00  0.00  1.00  0.00  0.00  0.00  0.20  0.00
  YS02001882YS02001884    1.00   0.04  0.00  0.00  0.95  0.00  0.00  0.00  0.00  0.00
  YS02001884YS02001887    1.00   0.03  0.01  0.00  0.96  0.00  0.00  0.00  0.00  0.00
  YS02001890YS02001895    1.00   0.00  0.05  0.00  0.95  0.00  0.00  0.00  0.00  0.00
  YS02001895YS02001898    1.00   0.05  0.00  0.00  0.95  0.00  0.01  0.00  0.00  0.00
  YS02001898YS02001901    1.00   0.05  0.00  0.00  0.95  0.00  0.00  0.00  0.02  0.00
  YS02001901YS02001904    1.00   0.05  0.00  0.00  0.95  0.00  0.00  0.00  0.00  0.00
  YS02001904YS02001907    1.00   0.00  0.05  0.00  0.95  0.00  0.00  0.00  0.00  0.00
  YS02001887YS02001890    1.00   0.00  0.00  0.00  0.98  0.00  0.02  0.00  0.00  0.00
  YS02001652YS02001649    1.00   0.00  0.00  0.00  1.00  0.00  0.00  0.00  0.18  0.00
  YS02001655YS02001652    1.00   0.00  0.00  0.00  0.94  0.00  0.00  0.05  0.02  0.00
  YS02001658YS02001655    1.00   0.00  0.04  0.00  0.93  0.03  0.00  0.00  0.08  0.00
  YS02001661YS02001658    1.00   0.04  0.00  0.00  0.89  0.07  0.00  0.00  0.04  0.00
  YS02001664YS02001661    1.00   0.04  0.00  0.00  0.85  0.11  0.00  0.00  0.24  0.00
  YSB1154YSB6556          1.00   0.04  0.00  0.00  0.96  0.00  0.00  0.00  0.02  0.00
  YSB1174YSB1171          1.00   0.03  0.01  0.00  0.97  0.00  0.00  0.00  0.00  0.00
  YSB1171HS02004479       1.00   0.02  0.00  0.00  0.97  0.00  0.00  0.00  0.11  0.00
  HS02004881HS02006253    1.00   0.03  0.00  0.00  0.91  0.00  0.00  0.06  0.73  0.00
  YS02001793JiankangQianchi    1.00   0.00  0.00  0.00  0.46  0.54  0.00  0.00  0.26  0.00
  YS02001757CaochengTiaoxuchi    1.00   0.00  0.07  0.00  0.93  0.01  0.00  0.00  0.00  0.00
  WSF200WS02003060        1.00   0.00  0.05  0.00  0.95  0.01  0.00  0.00  0.23  0.00
  1                       1.00   0.00  0.00  0.00  0.00  1.00  0.00  0.00  0.27  0.00
  2                       1.00   0.76  0.00  0.00  0.00  0.24  0.00  0.00  0.03  0.00
  3                       1.00   0.12  0.00  0.00  0.00  0.88  0.00  0.00  0.20  0.00
  4                       1.00   1.00  0.00  0.00  0.00  0.00  0.00  0.00  0.00  0.00
  
  
  *************************
  Conduit Surcharge Summary
  *************************
  
  ----------------------------------------------------------------------------
                                                           Hours        Hours 
                         --------- Hours Full --------   Above Full   Capacity
  Conduit                Both Ends  Upstream  Dnstream   Normal Flow   Limited
  ----------------------------------------------------------------------------
  WS02006229WS02006228        1.62      1.65      1.62      5.82         1.62
  WS02006256WS02006235        6.24      6.24      7.98      3.89         0.01
  WS02006252WS02006251        0.26      0.26      0.42      0.38         0.01
  WS02006251WS02006249        0.01      0.01      0.01      0.28         0.01
  WS02006249WS02006248        0.01      0.01      0.01      5.76         0.01
  WS02006247WS02006245        0.01      0.01      0.01      5.83         0.01
  WS02006243WS02006242        0.01      0.01      1.09      0.01         0.01
  WS02006242WS02006240        0.63      0.63      1.35      0.46         0.01
  WS02006240WS02006239        0.78      0.78      1.05      0.01         0.01
  WS02006239WS02006238        1.42      1.42      1.46      0.01         0.01
  WS02006238WS02006235        1.44      1.44      1.50      0.01         0.01
  WS02006235WS02006234        1.01      1.01      1.42      6.25         0.01
  WS02006234WS02006232        1.27      1.27      1.54      0.01         0.01
  WS02006232WS02006231        0.30      0.30      1.54      0.01         0.01
  WS02006231WS02006230        0.01      0.01      0.39      6.32         0.01
  WS02006230WS02006229        1.98      4.58      1.98      6.46         1.98
  WS02006228WS02006109        1.63      1.76      1.63      6.01         1.63
  WS02006112WS02006115        0.01      0.01      1.19      0.01         0.01
  WS02006111WS02006112        0.01      0.01      5.89      0.01         0.01
  WS02006110WS02006113        0.01      0.01      1.69      0.01         0.01
  WS02006109WS02006110        0.77      0.77      1.76      0.77         0.01
  WS02004405WS02004406        0.01      0.01      0.01      0.91         0.01
  WS02004404WS02004405        0.01      0.01      0.01      6.20         0.01
  WS02003072WS02003073        0.01      0.01      0.01      5.88         0.01
  YS02001759YS02001757        5.90      5.90      5.97      0.01         0.01
  YS02001762YS02001759        5.88      5.88      5.90      0.01         0.01
  YS02001765YS02001762        5.86      5.86      5.88      0.01         0.01
  YS02001770YS02001767        5.83      5.84      5.84      0.01         0.71
  YS02001774YS02001770        5.77      5.77      5.87      0.01         0.01
  YS02001779YS02001774        5.60      5.60      5.87      0.01         0.01
  YS02001649YS02001757        5.89      5.89      5.97      0.01         0.01
  YS02001767YS02001765        5.84      5.84      5.86      0.01         0.01
  YS02001784YS02001785        0.01      0.01      0.01      1.48         0.01
  YS02001788YS02001790        0.01      0.01      0.03      0.01         0.01
  YS02001790YS02001791        0.03      0.03      0.48      0.01         0.01
  YS02001791YS02001793        0.48      0.48      1.00      0.01         0.01
  YS02001910YS02001907        0.01      0.01      0.79      0.01         0.01
  YS02001786YS02001788        0.01      0.01      0.01      1.07         0.01
  YS02001629YS02163301        5.75      5.75      5.83      0.01         0.01
  YS02001619YS02001622        5.25      5.25      5.35      0.01         0.02
  YS02001622YS02001625        5.35      5.35      5.66      0.01         0.01
  YS02001625YS02001629        5.29      5.29      5.66      0.01         0.01
  YS02163301YS02001633        5.83      5.83      5.86      0.01         0.01
  YS02163601YS02164001        5.86      5.86      5.89      0.01         0.01
  YS02164001YS02001641        5.86      5.86      5.87      0.01         0.03
  YS02001641YS02001644        5.87      5.87      5.87      0.12         0.82
  YS02001647YS02001649        5.66      5.66      5.89      0.01         0.01
  YS02006553YS02006556        0.01      0.01      0.89      0.01         0.01
  YS02006556YS02006558        0.24      0.24      0.99      0.01         0.01
  YS02001907YS02006553        1.50      1.50      1.71      0.01         0.01
  YS02006558YS02006561        0.01      0.01      0.01      1.35         0.01
  YS02001633YS02163601        5.85      5.85      5.89      0.01         0.01
  YS02001644YS02001647        5.66      5.66      5.87      0.01         0.01
  YS02001745YS02001748        0.01      0.01      4.98      0.01         0.01
  YS02001748YS02001751        5.06      5.06      5.29      0.01         0.01
  YS02001751YS02001754        5.29      5.29      5.63      0.01         0.01
  YS02001754YS02001757        5.66      5.66      5.97      0.01         0.01
  YS02001904YS02001907        0.01      0.01      0.93      0.01         0.01
  YS02001652YS02001649        5.67      5.67      5.89      0.01         0.01
  YS02001655YS02001652        5.32      5.32      5.65      0.01         0.01
  YS02001658YS02001655        5.01      5.01      5.32      0.01         0.01
  YS02001661YS02001658        0.12      0.12      5.01      0.01         0.01
  YS02001664YS02001661        0.01      0.01      0.90      0.01         0.01
  YS02001793JiankangQianchi        0.88      0.88      2.79      0.01         0.01
  YS02001757CaochengTiaoxuchi        4.95      4.95      5.97      0.01         0.01
  
  
  ***************
  Pumping Summary
  ***************
  
  ---------------------------------------------------------------------------------------------------------
                                                  Min       Avg       Max     Total     Power    % Time Off
                        Percent   Number of      Flow      Flow      Flow    Volume     Usage    Pump Curve
  Pump                 Utilized   Start-Ups       LPS       LPS       LPS  10^6 ltr     Kw-hr    Low   High
  ---------------------------------------------------------------------------------------------------------
  CC-Pump-1               74.60           1      0.00    197.10    200.00     4.207      5.30    0.0    9.8
  CC-Pump-2                6.25           1      0.00    134.39    200.00     0.240      0.41    0.0    0.0
  JK-Pump-1               43.75           1      0.00    247.00    300.00     1.858     32.73    0.0    0.0
  JK-Pump-2               89.58           1      0.00    224.22    300.00     4.885     67.37    0.0    0.0
  XR-Pump-1               66.67           2      0.00     91.15     95.00     1.710     11.15    0.0    0.0
  XR-Pump-2               43.75           1      0.00     90.35     95.00     1.140     17.67    0.0    0.0
  XR-Pump-3               89.58           1      0.00     94.11     95.00     2.394     22.89    0.0    0.0
  XR-Pump-4               97.92           1      0.00     93.98     95.00     2.622     25.86    0.0    0.0
  

  Analysis begun on:  Wed Dec 15 10:35:02 2021
  Analysis ended on:  Wed Dec 15 10:35:06 2021
  Total elapsed time: 00:00:04