
  EPA STORM WATER MANAGEMENT MODEL - VERSION 5.1 (Build 5.3.0.dev0)
  --------------------------------------------------------------

  WARNING 04: minimum elevation drop used for Conduit WS02004404WS02004405
  WARNING 03: negative offset ignored for Link YS02001904YS02001907
  
  *********************************************************
  NOTE: The summary statistics displayed in this report are
  based on results found at every computational time step,  
  not just on results from each reporting time step.
  *********************************************************
  
  ****************
  Analysis Options
  ****************
  Flow Units ............... LPS
  Process Models:
    Rainfall/Runoff ........ YES
    RDII ................... NO
    Snowmelt ............... NO
    Groundwater ............ NO
    Flow Routing ........... YES
    Ponding Allowed ........ NO
    Water Quality .......... NO
  Infiltration Method ...... HORTON
  Flow Routing Method ...... DYNWAVE
  Surcharge Method ......... EXTRAN
  Starting Date ............ 08/28/2015 08:00:00
  Ending Date .............. 08/28/2015 16:00:00
  Antecedent Dry Days ...... 8.0
  Report Time Step ......... 00:01:00
  Wet Time Step ............ 00:01:00
  Dry Time Step ............ 00:01:00
  Routing Time Step ........ 5.00 sec
  Variable Time Step ....... YES
  Maximum Trials ........... 8
  Number of Threads ........ 4
  Head Tolerance ........... 0.001500 m
  
  
  **************************        Volume         Depth
  Runoff Quantity Continuity     hectare-m            mm
  **************************     ---------       -------
  Total Precipitation ......         5.151        11.277
  Evaporation Loss .........         0.000         0.000
  Infiltration Loss ........         1.324         2.899
  Surface Runoff ...........         2.832         6.201
  Final Storage ............         0.995         2.179
  Continuity Error (%) .....        -0.014
  
  
  **************************        Volume        Volume
  Flow Routing Continuity        hectare-m      10^6 ltr
  **************************     ---------     ---------
  Dry Weather Inflow .......         0.630         6.296
  Wet Weather Inflow .......         2.831        28.311
  Groundwater Inflow .......         0.000         0.000
  RDII Inflow ..............         0.000         0.000
  External Inflow ..........         0.105         1.045
  External Outflow .........         2.273        22.733
  Flooding Loss ............         0.773         7.735
  Evaporation Loss .........         0.000         0.000
  Exfiltration Loss ........         0.000         0.000
  Initial Stored Volume ....         0.076         0.761
  Final Stored Volume ......         0.633         6.331
  Continuity Error (%) .....        -1.058
  
  
  *************************
  Highest Continuity Errors
  *************************
  Node HS02004842 (17.02%)
  Node YS02001884 (9.92%)
  Node YS02001774 (5.32%)
  Node JK-storage (-4.44%)
  Node YSB1171 (3.39%)
  
  
  ***************************
  Time-Step Critical Elements
  ***************************
  Link WS02006252WS02006251 (61.80%)
  Link 3 (33.04%)
  
  
  ********************************
  Highest Flow Instability Indexes
  ********************************
  Link YS02163301YS02001633 (37)
  Link YS02001629YS02163301 (37)
  Link YS02163601YS02164001 (37)
  Link WS02006113WS02006111 (36)
  Link YS02001619YS02001622 (35)
  
  
  *************************
  Routing Time Step Summary
  *************************
  Minimum Time Step           :     0.50 sec
  Average Time Step           :     0.77 sec
  Maximum Time Step           :     5.00 sec
  Percent in Steady State     :    -0.00
  Average Iterations per Step :     4.43
  Percent Not Converging      :    20.21
  
  
  ***************************
  Subcatchment Runoff Summary
  ***************************
  
  ------------------------------------------------------------------------------------------------------------------------------
                            Total      Total      Total      Total     Imperv       Perv      Total       Total     Peak  Runoff
                           Precip      Runon       Evap      Infil     Runoff     Runoff     Runoff      Runoff   Runoff   Coeff
  Subcatchment                 mm         mm         mm         mm         mm         mm         mm    10^6 ltr      LPS
  ------------------------------------------------------------------------------------------------------------------------------
  sub0                      11.28       0.00       0.00       0.79       9.22       0.00       9.22        0.01     1.44   0.818
  sub1                      11.28       0.00       0.00       1.24       8.78       0.00       8.78        0.06    10.11   0.779
  sub2                      11.28       0.00       0.00       4.17       6.20       0.00       6.20        0.06     9.79   0.550
  sub3                      11.28       0.00       0.00       4.17       6.16       0.00       6.16        0.14    22.44   0.546
  sub4                      11.28       0.00       0.00       1.24       8.64       0.00       8.64        0.18    27.35   0.766
  sub5                      11.28       0.00       0.00       0.79       9.18       0.00       9.18        0.10    18.00   0.814
  sub7                      11.28       0.00       0.00       1.01       9.01       0.00       9.01        0.03     5.34   0.799
  sub8                      11.28       0.00       0.00       1.01       9.00       0.00       9.00        0.06    10.08   0.798
  sub9                      11.28       0.00       0.00       1.01       9.00       0.00       9.00        0.04     7.58   0.798
  sub10                     11.28       0.00       0.00       0.90       9.08       0.00       9.08        0.10    17.43   0.806
  sub11                     11.28       0.00       0.00       0.90       9.10       0.00       9.10        0.11    18.56   0.807
  sub12                     11.28       0.00       0.00       1.47       8.62       0.00       8.62        0.08    13.79   0.765
  sub14                     11.28       0.00       0.00       1.01       8.99       0.00       8.99        0.09    14.98   0.798
  sub15                     11.28       0.00       0.00       3.38       6.92       0.00       6.92        0.12    20.76   0.613
  sub16                     11.28       0.00       0.00       3.72       6.64       0.00       6.64        0.07    12.34   0.589
  sub17                     11.28       0.00       0.00       3.61       6.73       0.00       6.73        0.06    10.18   0.597
  sub22                     11.28       0.00       0.00       4.85       5.64       0.00       5.64        0.36    62.58   0.500
  sub23                     11.28       0.00       0.00       4.17       6.24       0.00       6.24        0.30    52.29   0.553
  sub60                     11.28       0.00       0.00       1.35       7.12       0.00       7.12        2.16   214.31   0.632
  sub61                     11.28       0.00       0.00       1.92       7.25       0.00       7.25        2.24   246.69   0.643
  sub62                     11.28       0.00       0.00       0.90       7.88       0.00       7.88        2.42   259.66   0.699
  sub63                     11.28       0.00       0.00       3.27       6.35       0.00       6.35        1.92   219.77   0.563
  sub64                     11.28       0.00       0.00       1.69       6.84       0.00       6.84        2.08   204.52   0.606
  sub65                     11.28       0.00       0.00       1.47       6.95       0.00       6.95        2.14   208.50   0.616
  sub66                     11.28       0.00       0.00       3.27       5.87       0.00       5.87        1.80   183.42   0.520
  sub67                     11.28       0.00       0.00       0.90       8.33       0.00       8.33        2.57   301.39   0.739
  sub68                     11.28       0.00       0.00       1.58       7.63       0.00       7.63        2.35   264.96   0.677
  sub69                     11.28       0.00       0.00       1.69       7.92       0.00       7.92        1.85   237.25   0.702
  sub70                     11.28       8.09       0.00       6.55      10.55       0.03      10.58        2.42   252.63   0.547
  sub71                     11.28       0.00       0.00       0.90       7.67       0.00       7.67        1.81   186.96   0.680
  sub72                     11.28       0.00       0.00       0.79       6.09       0.00       6.09        1.24   100.40   0.540
  sub73                     11.28      10.30       0.00       7.32      11.50       0.02      11.51        2.71   238.40   0.534
  sub74                     11.28       0.00       0.00       8.46       2.36       0.00       2.36        0.94   126.51   0.209
  
  
  ******************
  Node Depth Summary
  ******************
  
  ---------------------------------------------------------------------------------
                                 Average  Maximum  Maximum  Time of Max    Reported
                                   Depth    Depth      HGL   Occurrence   Max Depth
  Node                 Type       Meters   Meters   Meters  days hr:min      Meters
  ---------------------------------------------------------------------------------
  WS02001211           JUNCTION     0.70     0.73     5.57     0  02:18        0.73
  WS02001212           JUNCTION     0.42     0.46     5.52     0  02:15        0.46
  WS02001213           JUNCTION     0.66     0.72     5.48     0  02:15        0.72
  WS02003069           JUNCTION     0.48     0.57     5.16     0  02:15        0.57
  WS02003072           JUNCTION     0.54     0.63     5.00     0  02:15        0.63
  WS02003073           JUNCTION     0.33     0.39     4.45     0  02:16        0.39
  WS02003060           JUNCTION     0.42     0.50     5.44     0  02:15        0.50
  WS02003066           JUNCTION     0.25     0.31     5.87     0  02:13        0.31
  WS02003059           JUNCTION     0.72     0.78     5.47     0  02:15        0.78
  WS02003067           JUNCTION     0.61     0.72     6.04     0  02:13        0.72
  WS02004401           JUNCTION     0.72     0.91     6.91     0  02:11        0.90
  WS02004402           JUNCTION     0.75     0.93     6.89     0  02:11        0.93
  WS02004403           JUNCTION     0.77     0.94     6.87     0  02:11        0.94
  WS02004404           JUNCTION     0.84     1.01     6.86     0  02:12        1.01
  WS02004406           JUNCTION     0.84     0.99     6.82     0  02:12        0.99
  WS02004409           JUNCTION     0.53     0.71     6.48     0  02:12        0.71
  WS02004410           JUNCTION     0.55     0.72     6.44     0  02:13        0.72
  WS02004411           JUNCTION     0.57     0.73     6.41     0  02:13        0.73
  WS02004412           JUNCTION     0.58     0.73     6.37     0  02:13        0.73
  WS02004413           JUNCTION     0.74     0.89     6.36     0  02:13        0.89
  WS02004405           JUNCTION     0.83     1.00     6.85     0  02:11        1.00
  WS02006109           JUNCTION     0.81     1.04     7.65     0  02:05        1.03
  WS02006110           JUNCTION     0.79     0.97     7.55     0  02:13        0.96
  WS02006111           JUNCTION     0.24     0.30     7.01     0  02:12        0.30
  WS02006112           JUNCTION     0.89     1.19     7.08     0  02:05        1.17
  WS02006113           JUNCTION     0.37     0.48     7.37     0  02:09        0.48
  WS02006115           JUNCTION     0.61     0.81     6.95     0  02:12        0.81
  WS02006116           JUNCTION     0.69     0.89     6.93     0  02:12        0.89
  WS02006230           JUNCTION     0.79     1.08     7.83     0  02:09        1.08
  WS02006231           JUNCTION     0.53     0.75     7.87     0  02:09        0.75
  WS02006232           JUNCTION     0.67     0.87     7.91     0  02:09        0.87
  WS02006234           JUNCTION     0.59     0.80     7.95     0  02:10        0.80
  WS02006235           JUNCTION     0.62     0.82     7.99     0  02:10        0.82
  WS02006238           JUNCTION     0.64     0.85     7.99     0  02:10        0.85
  WS02006240           JUNCTION     0.54     0.74     8.04     0  02:10        0.74
  WS02006242           JUNCTION     0.59     0.80     8.07     0  03:11        0.80
  WS02006243           JUNCTION     0.47     0.70     8.12     0  03:11        0.70
  WS02006245           JUNCTION     0.44     0.67     8.15     0  03:11        0.66
  WS02006247           JUNCTION     0.46     0.67     8.17     0  03:11        0.67
  WS02006248           JUNCTION     0.40     0.61     8.19     0  03:11        0.61
  WS02006249           JUNCTION     0.43     0.62     8.22     0  03:11        0.62
  WS02006239           JUNCTION     0.60     0.80     8.01     0  02:09        0.80
  WS02006251           JUNCTION     0.41     0.64     8.31     0  03:10        0.64
  WS02006252           JUNCTION     0.34     0.59     8.83     0  03:16        0.59
  WS02006253           JUNCTION     0.44     0.67     8.31     0  03:10        0.67
  WS02006256           JUNCTION     1.09     1.21     8.15     0  02:10        1.21
  WS02004138           JUNCTION     0.16     0.17     7.42     0  00:24        0.17
  WS02004407           JUNCTION     0.24     0.31     6.63     0  02:12        0.31
  WS02006228           JUNCTION     0.81     1.09     7.74     0  02:07        1.08
  WS02006229           JUNCTION     0.79     1.08     7.78     0  02:09        1.08
  WS02006280           JUNCTION     0.07     0.16     8.44     0  02:09        0.16
  WS02006284           JUNCTION     0.38     0.51     8.91     0  02:09        0.51
  WS02006287           JUNCTION     0.11     0.24     9.20     0  02:09        0.24
  WSF200               JUNCTION     0.24     0.33     5.57     0  02:13        0.33
  HS02004901           JUNCTION     0.13     0.25    10.07     0  02:07        0.25
  HS02004881           JUNCTION     0.01     0.03     9.06     0  02:08        0.03
  HS02004876           JUNCTION     0.05     0.11     9.14     0  02:05        0.11
  HS02004870           JUNCTION     0.02     0.05     9.34     0  02:09        0.05
  HS02004862           JUNCTION     0.02     0.06     9.44     0  02:09        0.06
  HS02004856           JUNCTION     0.08     0.11     9.54     0  02:09        0.11
  HS02004852           JUNCTION     0.01     0.04     9.55     0  02:09        0.04
  HS02004848           JUNCTION     0.01     0.04     9.64     0  02:09        0.04
  HS02004842           JUNCTION     0.33     0.37     9.64     0  02:09        0.37
  HS02004837           JUNCTION     0.03     0.06     9.64     0  02:09        0.06
  HS02004830           JUNCTION     0.04     0.07     9.54     0  02:09        0.07
  HS02004824           JUNCTION     0.03     0.05     9.45     0  02:10        0.05
  HS02004817           JUNCTION     0.45     0.56     9.40     0  02:09        0.56
  HS02004807           JUNCTION     0.13     0.23     9.40     0  02:09        0.23
  HS02004802           JUNCTION     0.17     0.26     9.39     0  02:09        0.26
  HS02004799           JUNCTION     0.13     0.28     9.49     0  02:07        0.28
  HS02004792           JUNCTION     0.04     0.11     9.63     0  02:07        0.11
  HS02004788           JUNCTION     0.03     0.08     9.98     0  02:08        0.08
  HS02004785           JUNCTION     0.05     0.15    10.05     0  02:08        0.15
  HS02004777           JUNCTION     0.16     0.27    10.06     0  02:07        0.27
  HS02004770           JUNCTION     0.13     0.24    10.07     0  02:07        0.24
  HS02004480           JUNCTION     0.09     0.22     9.46     0  02:07        0.22
  HS02004479           JUNCTION     0.13     0.26     9.46     0  02:08        0.26
  HS02004478           JUNCTION     0.07     0.15     9.38     0  02:08        0.15
  YS02001745           JUNCTION     0.69     0.87     8.38     0  03:02        0.86
  YS02001748           JUNCTION     1.09     2.27     9.35     0  02:25        1.31
  YS02001751           JUNCTION     1.27     2.14     9.02     0  02:26        1.52
  YS02001754           JUNCTION     1.53     2.10     8.70     0  02:27        1.80
  YS02001762           JUNCTION     1.73     2.05     8.45     0  02:26        2.02
  YS02001765           JUNCTION     1.68     1.99     8.44     0  02:26        1.97
  YS02001767           JUNCTION     1.64     1.94     8.43     0  02:26        1.92
  YS02001770           JUNCTION     1.64     1.95     8.44     0  02:26        1.90
  YS02001774           JUNCTION     1.71     2.00     8.42     0  02:26        1.96
  YS02001779           JUNCTION     1.46     1.68     8.37     0  02:23        1.68
  YS02001882           JUNCTION     0.46     1.08     7.79     0  03:00        1.08
  YS02001884           JUNCTION     0.55     1.18     7.79     0  02:59        1.17
  YS02001759           JUNCTION     1.76     2.07     8.43     0  03:01        2.06
  YS02001887           JUNCTION     0.63     1.25     7.79     0  03:01        1.25
  YS02001890           JUNCTION     0.66     1.28     7.79     0  03:01        1.28
  YS02001898           JUNCTION     0.43     1.04     7.77     0  03:02        1.03
  YS02001901           JUNCTION     0.55     1.16     7.77     0  03:00        1.15
  YS02001904           JUNCTION     0.53     1.14     7.77     0  03:00        1.13
  YS02001907           JUNCTION     0.86     1.48     7.77     0  03:02        1.47
  YS02001910           JUNCTION     0.65     1.27     7.78     0  03:01        1.25
  YS02001915           JUNCTION     0.45     1.06     7.78     0  03:00        1.05
  YS02001918           JUNCTION     0.19     0.71     7.77     0  03:02        0.71
  YS02001619           JUNCTION     1.24     1.61     8.54     0  02:21        1.57
  YS02001629           JUNCTION     1.60     1.85     8.40     0  02:21        1.85
  YS02001641           JUNCTION     1.70     1.97     8.41     0  02:29        1.93
  YS02001644           JUNCTION     1.70     1.92     8.35     0  02:29        1.92
  YS02001652           JUNCTION     1.54     2.16     8.76     0  02:40        1.87
  YS02001655           JUNCTION     1.30     2.20     9.05     0  02:13        1.69
  YS02001920           JUNCTION     0.29     0.77     7.78     0  03:01        0.77
  YS02001923           JUNCTION     0.13     0.52     7.78     0  03:01        0.51
  YS02001926           JUNCTION     0.20     0.34     7.79     0  03:02        0.34
  YS02001929           JUNCTION     0.10     0.15     7.84     0  03:01        0.15
  YS02001658           JUNCTION     1.03     2.30     9.44     0  02:21        1.51
  YS02001661           JUNCTION     0.80     2.46     9.86     0  02:44        1.57
  YS02001664           JUNCTION     0.35     0.57     8.50     0  02:42        0.56
  YS02001622           JUNCTION     1.26     1.62     8.52     0  02:24        1.53
  YS02001633           JUNCTION     1.69     2.02     8.48     0  02:28        1.95
  YS02001649           JUNCTION     1.74     2.05     8.44     0  02:21        2.05
  YS02001757           JUNCTION     1.86     2.21     8.47     0  02:26        2.16
  YS02001895           JUNCTION     0.42     1.03     7.78     0  03:01        1.03
  YS02001625           JUNCTION     1.55     1.78     8.38     0  02:21        1.78
  YS02163301           JUNCTION     1.63     1.95     8.47     0  02:28        1.88
  YS02163601           JUNCTION     1.74     2.05     8.44     0  02:29        1.99
  YS02164001           JUNCTION     1.68     1.98     8.44     0  02:29        1.91
  YS02001647           JUNCTION     1.53     1.80     8.41     0  02:46        1.79
  YSB1154              JUNCTION     0.27     0.41     9.47     0  02:08        0.41
  YSB6556              JUNCTION     0.16     0.30     9.47     0  02:07        0.30
  YSB1174              JUNCTION     0.22     0.36     9.47     0  02:08        0.36
  YSB1171              JUNCTION     0.42     0.56     9.47     0  02:08        0.56
  YS02006553           JUNCTION     0.86     1.48     7.76     0  03:00        1.46
  YS02006561           JUNCTION     0.25     0.72     7.38     0  03:01        0.72
  YS02006556           JUNCTION     0.83     1.43     7.74     0  03:02        1.42
  YS02006558           JUNCTION     0.87     1.47     7.73     0  03:00        1.46
  YS02001783           JUNCTION     0.48     1.25     7.39     0  02:47        1.17
  YS02001784           JUNCTION     0.51     1.27     7.34     0  02:47        1.16
  YS02001786           JUNCTION     0.46     1.48     7.51     0  02:47        1.05
  YS02001788           JUNCTION     0.41     1.49     7.46     0  02:47        0.98
  YS02001790           JUNCTION     0.54     1.51     7.16     0  02:47        1.19
  YS02001791           JUNCTION     0.52     1.34     6.81     0  02:47        1.23
  YS02001793           JUNCTION     0.72     1.80     6.63     0  03:04        1.80
  WS02004139           JUNCTION     0.64     0.67     5.58     0  02:17        0.67
  WSC                  OUTFALL      0.33     0.39     1.06     0  02:16        0.39
  3                    OUTFALL      0.12     0.21     6.21     0  02:10        0.21
  4                    OUTFALL      0.02     0.12     7.12     0  03:11        0.12
  5                    OUTFALL      0.00     0.00     5.00     0  00:00        0.00
  JK-storage           STORAGE      2.71     5.80     6.60     0  02:47        5.80
  CC-storage           STORAGE      1.08     1.36     8.36     0  03:38        1.36
  XR-storage           STORAGE      6.67     7.72     5.72     0  02:46        7.72
  
  
  *******************
  Node Inflow Summary
  *******************
  
  -------------------------------------------------------------------------------------------------
                                  Maximum  Maximum                  Lateral       Total        Flow
                                  Lateral    Total  Time of Max      Inflow      Inflow     Balance
                                   Inflow   Inflow   Occurrence      Volume      Volume       Error
  Node                 Type           LPS      LPS  days hr:min    10^6 ltr    10^6 ltr     Percent
  -------------------------------------------------------------------------------------------------
  WS02001211           JUNCTION      7.35   293.22     0  03:42       0.212        8.07       0.186
  WS02001212           JUNCTION      0.00   293.87     0  03:42           0        8.06       0.103
  WS02001213           JUNCTION      0.00   294.46     0  03:42           0        8.05       0.159
  WS02003069           JUNCTION      0.32   909.85     0  02:15     0.00922        17.4       0.103
  WS02003072           JUNCTION      0.00   909.84     0  02:15           0        17.3       0.140
  WS02003073           JUNCTION      1.82   911.66     0  02:16      0.0524        17.4       0.153
  WS02003060           JUNCTION     16.53   909.62     0  02:14       0.476        17.4       0.095
  WS02003066           JUNCTION      0.00   600.90     0  02:14           0        8.89       0.042
  WS02003059           JUNCTION      0.00   295.52     0  03:42           0        8.04       0.310
  WS02003067           JUNCTION      0.00   600.91     0  02:14           0        8.89       0.091
  WS02004401           JUNCTION      0.00   603.12     0  02:10           0        9.08       0.183
  WS02004402           JUNCTION      0.00   602.87     0  02:11           0        9.07       0.178
  WS02004403           JUNCTION      0.00   602.24     0  02:10           0        9.05       0.166
  WS02004404           JUNCTION      0.16   602.38     0  02:12     0.00467        9.04       0.130
  WS02004406           JUNCTION      0.00   602.35     0  02:12           0        9.01       0.318
  WS02004409           JUNCTION      0.00   601.68     0  02:12           0        8.98       0.135
  WS02004410           JUNCTION      0.00   601.35     0  02:12           0        8.97       0.160
  WS02004411           JUNCTION      0.00   601.22     0  02:13           0        8.95       0.171
  WS02004412           JUNCTION      0.00   601.03     0  02:13           0        8.94       0.191
  WS02004413           JUNCTION      0.00   600.99     0  02:13           0        8.92       0.292
  WS02004405           JUNCTION      0.04   602.44     0  02:12      0.0011        9.03       0.194
  WS02006109           JUNCTION      1.23   591.56     0  02:10      0.0354        9.11       0.167
  WS02006110           JUNCTION      0.00   591.53     0  02:10           0         9.1       0.144
  WS02006111           JUNCTION      0.00   618.89     0  02:09           0        9.08       0.022
  WS02006112           JUNCTION     10.18   608.77     0  02:12      0.0578        9.14       0.272
  WS02006113           JUNCTION      0.00   592.62     0  02:11           0        9.08       0.054
  WS02006115           JUNCTION      0.00   618.86     0  02:09           0        9.11       0.155
  WS02006116           JUNCTION      0.00   604.45     0  02:12           0         9.1       0.141
  WS02006230           JUNCTION     10.28   390.99     0  03:20       0.296        7.35       0.151
  WS02006231           JUNCTION      0.00   380.30     0  03:20           0        7.05      -0.015
  WS02006232           JUNCTION      0.00   380.29     0  03:20           0        7.06       0.115
  WS02006234           JUNCTION      0.00   380.13     0  03:20           0        7.06       0.001
  WS02006235           JUNCTION      0.00   380.10     0  03:20           0         7.1       0.080
  WS02006238           JUNCTION      0.00   290.74     0  03:21           0        4.78       0.042
  WS02006240           JUNCTION      0.00   290.51     0  03:21           0        4.75       0.033
  WS02006242           JUNCTION      0.00   290.46     0  03:21           0        4.74       0.045
  WS02006243           JUNCTION      0.00   289.70     0  03:20           0        4.73      -0.040
  WS02006245           JUNCTION      0.00   289.51     0  03:20           0        4.73       0.038
  WS02006247           JUNCTION      0.00   289.30     0  03:20           0        4.73       0.008
  WS02006248           JUNCTION      0.00   289.09     0  03:20           0        4.73      -0.014
  WS02006249           JUNCTION      0.00   422.25     0  03:10           0        4.95       0.035
  WS02006239           JUNCTION      0.00   290.65     0  03:21           0        4.76       0.035
  WS02006251           JUNCTION      0.08   422.56     0  03:10     0.00222        4.95       0.000
  WS02006252           JUNCTION      0.00   400.00     0  03:10           0        4.61       0.003
  WS02006253           JUNCTION      1.44    57.92     0  02:08     0.00747       0.333      -0.091
  WS02006256           JUNCTION      0.00   600.00     0  01:47           0        7.52       0.024
  WS02004138           JUNCTION      0.00   285.00     0  00:40           0        7.87       0.001
  WS02004407           JUNCTION      0.00   601.94     0  02:12           0        8.98       0.057
  WS02006228           JUNCTION      0.00   590.33     0  02:10           0        9.09       0.099
  WS02006229           JUNCTION      0.00   589.89     0  02:09           0         9.1       0.095
  WS02006280           JUNCTION      0.00   274.19     0  02:09           0        1.76       0.004
  WS02006284           JUNCTION      0.10   274.19     0  02:09     0.00275        1.76       0.059
  WS02006287           JUNCTION      0.00   274.08     0  02:09           0        1.76       0.041
  WSF200               JUNCTION      0.00   600.90     0  02:14           0        8.88       0.038
  HS02004901           JUNCTION     12.34    12.34     0  01:36      0.0695      0.0697       2.585
  HS02004881           JUNCTION      5.34    56.62     0  02:08      0.0303       0.326       0.110
  HS02004876           JUNCTION     10.11    51.23     0  02:08      0.0584       0.296       0.179
  HS02004870           JUNCTION     10.08    41.18     0  02:08      0.0575       0.238       0.044
  HS02004862           JUNCTION      9.99    31.21     0  02:08      0.0635       0.181       0.093
  HS02004856           JUNCTION      7.58    21.25     0  02:08      0.0433       0.119       1.230
  HS02004852           JUNCTION      0.00    13.78     0  02:09           0      0.0753       0.069
  HS02004848           JUNCTION     22.44    22.44     0  02:09       0.139       0.139       0.031
  HS02004842           JUNCTION      0.00     8.71     0  02:17           0      0.0764      20.513
  HS02004837           JUNCTION     23.78    32.32     0  02:08       0.283       0.346       0.227
  HS02004830           JUNCTION      0.15    32.46     0  02:09     0.00432       0.337       0.367
  HS02004824           JUNCTION     27.40    59.85     0  02:10       0.182       0.517       0.104
  HS02004817           JUNCTION      0.60    60.44     0  02:10      0.0173       0.534       3.222
  HS02004807           JUNCTION     18.56    78.63     0  02:09       0.106       0.623       0.699
  HS02004802           JUNCTION      0.00    78.69     0  02:10           0        0.62       0.638
  HS02004799           JUNCTION     14.98   164.66     0  02:07      0.0856       0.977       0.269
  HS02004792           JUNCTION     62.86   149.73     0  02:07       0.364       0.892       0.045
  HS02004788           JUNCTION     22.43    86.95     0  02:07       0.167       0.529       0.072
  HS02004785           JUNCTION      0.15    64.59     0  02:07     0.00432       0.363       0.133
  HS02004777           JUNCTION      0.03    64.48     0  02:07    0.000864       0.364       1.445
  HS02004770           JUNCTION     52.29    64.50     0  02:06       0.297       0.365       0.852
  HS02004480           JUNCTION      0.00   195.78     0  02:07           0        1.15       0.098
  HS02004479           JUNCTION      0.00    31.20     0  02:09           0       0.188       0.390
  HS02004478           JUNCTION      0.00   274.07     0  02:08           0        1.76       0.020
  YS02001745           JUNCTION    214.32   447.34     0  02:24        2.16        2.18       0.528
  YS02001748           JUNCTION      0.04   609.85     0  02:25      0.0013        2.17       1.034
  YS02001751           JUNCTION      0.01   323.21     0  02:14    0.000317        2.13       1.124
  YS02001754           JUNCTION      0.26   230.93     0  02:25     0.00749        2.11       1.180
  YS02001762           JUNCTION      0.00   257.16     0  02:45           0        1.94       1.093
  YS02001765           JUNCTION      0.00   257.22     0  02:44           0        1.94       1.262
  YS02001767           JUNCTION      0.54   257.12     0  02:45      0.0154        1.96       1.855
  YS02001770           JUNCTION    259.81   259.81     0  02:54        2.43        2.43       1.312
  YS02001774           JUNCTION      0.00   198.02     0  03:07           0       0.469       5.620
  YS02001779           JUNCTION      0.01   198.15     0  03:07    0.000144       0.438       3.599
  YS02001882           JUNCTION      0.00    12.72     0  02:48           0       0.021      10.611
  YS02001884           JUNCTION      0.00    25.53     0  02:48           0      0.0571      11.014
  YS02001759           JUNCTION    246.73   501.15     0  02:45        2.24        4.14       0.552
  YS02001887           JUNCTION    301.84   302.97     0  02:51        2.58        2.61       0.308
  YS02001890           JUNCTION      0.00   302.47     0  02:49           0        2.57       0.339
  YS02001898           JUNCTION      0.00   301.51     0  02:58           0        2.55       0.109
  YS02001901           JUNCTION      0.00   298.38     0  02:47           0        2.55       0.252
  YS02001904           JUNCTION      0.00   297.47     0  02:46           0        2.55       0.228
  YS02001907           JUNCTION      0.00   571.93     0  02:46           0        5.66       0.425
  YS02001910           JUNCTION      0.00   310.10     0  03:08           0        3.12       0.363
  YS02001915           JUNCTION    186.98   307.70     0  03:08        1.81        3.13       0.174
  YS02001918           JUNCTION      0.00   135.67     0  03:08           0        1.32       0.130
  YS02001619           JUNCTION    183.42   183.42     0  02:55         1.8         1.8       0.663
  YS02001629           JUNCTION      0.00   178.39     0  02:08           0        1.68       1.678
  YS02001641           JUNCTION      0.00   374.51     0  02:39           0        3.72       0.564
  YS02001644           JUNCTION    204.56   904.93     0  03:06        2.08        7.28       0.357
  YS02001652           JUNCTION      0.00   296.11     0  02:21           0        1.87       1.230
  YS02001655           JUNCTION      0.15   381.71     0  02:13     0.00443         1.9       1.304
  YS02001920           JUNCTION      2.87   129.03     0  03:05      0.0827        1.32       0.208
  YS02001923           JUNCTION      0.04   105.64     0  03:05     0.00109        1.24       0.037
  YS02001926           JUNCTION      0.05   100.44     0  03:01      0.0015        1.24       0.257
  YS02001929           JUNCTION    100.40   100.40     0  03:01        1.24        1.24       0.038
  YS02001658           JUNCTION      0.00   615.63     0  02:21           0        1.93       1.176
  YS02001661           JUNCTION      0.00   623.86     0  02:42           0        2.71      -0.101
  YS02001664           JUNCTION    219.77   379.05     0  02:42        1.92         2.7       0.276
  YS02001622           JUNCTION      0.00   183.64     0  02:54           0        1.79       1.791
  YS02001633           JUNCTION    208.70   374.08     0  02:39        2.14        3.77       0.847
  YS02001649           JUNCTION      0.00   790.16     0  02:37           0        4.65       0.795
  YS02001757           JUNCTION      0.00  1463.57     0  02:38           0        9.26       1.005
  YS02001895           JUNCTION      0.00   302.67     0  02:50           0        2.56       0.183
  YS02001625           JUNCTION      0.00   183.50     0  02:54           0        1.76       2.255
  YS02163301           JUNCTION      0.00   205.85     0  02:19           0        1.66       1.450
  YS02163601           JUNCTION      0.11   374.17     0  02:39     0.00317        3.73       0.809
  YS02164001           JUNCTION      0.00   374.38     0  02:39           0        3.71       0.535
  YS02001647           JUNCTION      0.00   568.33     0  02:39           0        3.65       0.780
  YSB1154              JUNCTION     18.00    18.00     0  02:07       0.104       0.105       1.398
  YSB6556              JUNCTION      0.00    17.99     0  02:06           0       0.105       1.196
  YSB1174              JUNCTION     13.79    13.79     0  01:35      0.0753      0.0758       1.720
  YSB1171              JUNCTION      0.00    31.24     0  02:07           0       0.187       3.506
  YS02006553           JUNCTION      0.00   571.94     0  02:46           0        5.65       0.270
  YS02006561           JUNCTION      0.00   836.35     0  02:46           0        7.97       0.006
  YS02006556           JUNCTION      0.00   571.94     0  02:46           0        5.66       0.193
  YS02006558           JUNCTION    265.84   836.35     0  02:46        2.37           8       0.065
  YS02001783           JUNCTION      0.00   842.56     0  02:46           0        7.97       0.027
  YS02001784           JUNCTION      1.06   843.49     0  02:46      0.0305           8       0.043
  YS02001786           JUNCTION      0.06   833.42     0  02:45     0.00162        7.99       0.038
  YS02001788           JUNCTION      0.07   831.01     0  02:45     0.00204        7.99       0.021
  YS02001790           JUNCTION      0.15   829.90     0  02:44     0.00446           8       0.030
  YS02001791           JUNCTION      0.00   861.68     0  02:43           0        7.99       0.012
  YS02001793           JUNCTION      0.00   853.59     0  02:42           0        7.99       0.001
  WS02004139           JUNCTION      0.32   285.32     0  00:13     0.00924        7.87       0.183
  WSC                  OUTFALL       0.00   911.66     0  02:16           0        17.3       0.000
  3                    OUTFALL       0.00   520.69     0  02:10           0        5.18       0.000
  4                    OUTFALL       0.00   138.07     0  03:11           0       0.214       0.000
  5                    OUTFALL       0.00     0.00     0  00:00           0           0       0.000 ltr
  JK-storage           STORAGE       0.00   815.28     0  03:02           0        8.14      -4.248
  CC-storage           STORAGE       0.00  1463.50     0  02:38           0        8.47       0.775
  XR-storage           STORAGE     549.18   549.18     0  02:55        9.41          10      -0.002
  
  
  **********************
  Node Surcharge Summary
  **********************
  
  Surcharging occurs when water rises above the top of the highest conduit.
  ---------------------------------------------------------------------
                                               Max. Height   Min. Depth
                                   Hours       Above Crown    Below Rim
  Node                 Type      Surcharged         Meters       Meters
  ---------------------------------------------------------------------
  WS02004404           JUNCTION        0.34          0.008        2.772
  WS02006109           JUNCTION        1.89          0.215        1.605
  WS02006110           JUNCTION        1.19          0.056        1.794
  WS02006112           JUNCTION        1.46          0.192        1.488
  WS02006230           JUNCTION        0.13          0.003        1.567
  WS02006231           JUNCTION        0.67          0.038        1.492
  WS02006232           JUNCTION        1.78          0.170        1.310
  WS02006234           JUNCTION        1.51          0.077        1.163
  WS02006235           JUNCTION        1.66          0.111        1.179
  WS02006238           JUNCTION        1.70          0.126        1.304
  WS02006240           JUNCTION        1.02          0.033        1.357
  WS02006242           JUNCTION        1.55          0.074        0.746
  WS02006239           JUNCTION        1.52          0.065        1.225
  WS02006252           JUNCTION        0.42          0.193        0.907
  WS02006228           JUNCTION        1.87          0.258        1.942
  YS02001748           JUNCTION        5.42          1.190        0.000
  YS02001751           JUNCTION        5.66          1.137        0.063
  YS02001754           JUNCTION        5.90          1.046        0.104
  YS02001762           JUNCTION        6.12          1.045        0.105
  YS02001765           JUNCTION        6.10          0.989        0.111
  YS02001767           JUNCTION        6.09          0.939        0.091
  YS02001770           JUNCTION        6.06          0.916        0.004
  YS02001774           JUNCTION        6.12          1.003        0.047
  YS02001779           JUNCTION        5.87          0.680        0.000
  YS02001882           JUNCTION        0.19          0.077        0.753
  YS02001884           JUNCTION        0.26          0.118        0.752
  YS02001759           JUNCTION        6.15          1.067        0.143
  YS02001887           JUNCTION        0.39          0.203        0.747
  YS02001890           JUNCTION        0.44          0.231        0.529
  YS02001898           JUNCTION        0.03          0.007        0.733
  YS02001901           JUNCTION        0.34          0.160        0.710
  YS02001904           JUNCTION        0.31          0.136        0.714
  YS02001907           JUNCTION        1.44          0.471        0.479
  YS02001910           JUNCTION        0.53          0.269        0.831
  YS02001915           JUNCTION        0.16          0.059        0.941
  YS02001619           JUNCTION        5.68          0.610        0.000
  YS02001629           JUNCTION        5.69          0.470        0.000
  YS02001641           JUNCTION        6.11          0.970        0.130
  YS02001644           JUNCTION        6.11          0.920        0.000
  YS02001652           JUNCTION        5.91          1.130        0.000
  YS02001655           JUNCTION        5.70          1.200        0.000
  YS02001658           JUNCTION        5.46          1.300        0.000
  YS02001661           JUNCTION        0.21          1.390        0.000
  YS02001622           JUNCTION        5.74          0.620        0.000
  YS02001633           JUNCTION        6.10          1.005        0.055
  YS02001649           JUNCTION        6.13          1.050        0.000
  YS02001757           JUNCTION        6.21          1.210        0.000
  YS02001895           JUNCTION        0.11          0.034        0.716
  YS02001625           JUNCTION        5.93          0.780        0.000
  YS02163301           JUNCTION        6.08          0.950        0.080
  YS02163601           JUNCTION        6.13          1.046        0.034
  YS02164001           JUNCTION        6.10          0.979        0.121
  YS02001647           JUNCTION        5.92          0.804        0.096
  YS02006553           JUNCTION        1.51          0.475        0.715
  YS02006556           JUNCTION        1.01          0.389        0.961
  YS02006558           JUNCTION        0.95          0.367        1.033
  YS02001783           JUNCTION        0.71          0.453        1.147
  YS02001784           JUNCTION        0.75          0.472        1.018
  YS02001786           JUNCTION        0.70          0.679        0.751
  YS02001788           JUNCTION        0.70          0.686        0.794
  YS02001790           JUNCTION        2.08          0.712        0.445
  YS02001791           JUNCTION        2.21          0.543        1.377
  YS02001793           JUNCTION        2.42          0.798        1.802
  
  
  *********************
  Node Flooding Summary
  *********************
  
  Flooding refers to all water that overflows a node, whether it ponds or not.
  --------------------------------------------------------------------------
                                                             Total   Maximum
                                 Maximum   Time of Max       Flood    Ponded
                        Hours       Rate    Occurrence      Volume     Depth
  Node                 Flooded       LPS   days hr:min    10^6 ltr    Meters
  --------------------------------------------------------------------------
  YS02001748              0.01    178.02      0  02:26       0.000     0.000
  YS02001779              2.22    198.13      0  03:07       0.417     0.000
  YS02001619              0.01     31.54      0  02:22       0.000     0.000
  YS02001629              0.01     37.37      0  02:24       0.001     0.000
  YS02001644              4.62    904.82      0  03:06       5.110     0.000
  YS02001652              0.01     23.18      0  02:46       0.000     0.000
  YS02001655              0.01    147.43      0  02:13       0.000     0.000
  YS02001658              0.01    223.90      0  02:21       0.000     0.000
  YS02001661              0.01    190.20      0  02:46       0.001     0.000
  YS02001622              0.01     40.21      0  02:24       0.000     0.000
  YS02001649              0.08     51.12      0  02:46       0.005     0.000
  YS02001757              0.01     11.81      0  02:26       0.000     0.000
  YS02001625              0.58     36.51      0  02:27       0.046     0.000
  JK-storage              1.74    316.52      0  03:28       0.938     0.000
  XR-storage              3.17    264.18      0  02:55       1.217     0.000
  
  
  **********************
  Storage Volume Summary
  **********************
  
  --------------------------------------------------------------------------------------------------
                         Average     Avg  Evap Exfil       Maximum     Max    Time of Max    Maximum
                          Volume    Pcnt  Pcnt  Pcnt        Volume    Pcnt     Occurrence    Outflow
  Storage Unit           1000 m3    Full  Loss  Loss       1000 m3    Full    days hr:min        LPS
  --------------------------------------------------------------------------------------------------
  JK-storage               0.136      47     0     0         0.291     100       0  02:47     600.00
  CC-storage               3.002      19     0     0         3.792      24       0  03:38     400.00
  XR-storage               0.800      86     0     0         0.926     100       0  02:46     285.00
  
  
  ***********************
  Outfall Loading Summary
  ***********************
  
  -----------------------------------------------------------
                         Flow       Avg       Max       Total
                         Freq      Flow      Flow      Volume
  Outfall Node           Pcnt       LPS       LPS    10^6 ltr
  -----------------------------------------------------------
  WSC                  100.00    677.39    911.66      17.343
  3                     93.86    252.48    520.69       5.175
  4                     29.26     36.79    138.07       0.214
  5                      0.00      0.00      0.00       0.000
  -----------------------------------------------------------
  System                55.78    966.67   1482.48      22.733
  
  
  ********************
  Link Flow Summary
  ********************
  
  -----------------------------------------------------------------------------
                                 Maximum  Time of Max   Maximum    Max/    Max/
                                  |Flow|   Occurrence   |Veloc|    Full    Full
  Link                 Type          LPS  days hr:min     m/sec    Flow   Depth
  -----------------------------------------------------------------------------
  WS02003066WSF200     CONDUIT    600.90     0  02:14      2.76    0.10    0.25
  WS02006287WS02006284 CONDUIT    274.09     0  02:09      1.78    0.13    0.25
  WS02006284WS02006280 CONDUIT    274.19     0  02:09      2.02    0.11    0.23
  WS02006280WS02006229 CONDUIT    274.19     0  02:09      3.26    0.06    0.16
  WS02006229WS02006228 CONDUIT    590.33     0  02:10      1.17    1.96    1.00
  WS02006256WS02006235 CONDUIT    153.20     0  01:35      2.20    1.62    1.00
  WS02006253WS02006251 CONDUIT     57.87     0  02:08      0.52    0.17    0.93
  WS02006252WS02006251 CONDUIT    400.27     0  03:17      3.19    1.47    1.00
  WS02006251WS02006249 CONDUIT    422.25     0  03:10      1.16    1.22    0.90
  WS02006249WS02006248 CONDUIT    289.09     0  03:20      1.07    1.58    0.86
  WS02006248WS02006247 CONDUIT    289.30     0  03:20      1.04    0.63    0.91
  WS02006247WS02006245 CONDUIT    289.51     0  03:20      0.99    2.30    0.95
  WS02006245WS02006243 CONDUIT    289.70     0  03:20      1.04    0.86    0.97
  WS02006243WS02006242 CONDUIT    290.46     0  03:21      0.83    0.62    1.00
  WS02006242WS02006240 CONDUIT    290.51     0  03:21      0.75    1.15    1.00
  WS02006240WS02006239 CONDUIT    290.65     0  03:21      0.76    0.91    1.00
  WS02006239WS02006238 CONDUIT    290.74     0  03:21      0.76    0.93    1.00
  WS02006238WS02006235 CONDUIT    290.76     0  03:21      0.76    0.65    1.00
  WS02006235WS02006234 CONDUIT    380.13     0  03:20      0.99    4.01    1.00
  WS02006234WS02006232 CONDUIT    380.29     0  03:20      0.99    0.77    1.00
  WS02006232WS02006231 CONDUIT    380.30     0  03:20      1.01    0.80    1.00
  WS02006231WS02006230 CONDUIT    380.71     0  03:20      1.29    5.77    1.00
  WS02006230WS02006229 CONDUIT    392.07     0  03:21      1.02    8.73    1.00
  WS02006228WS02006109 CONDUIT    590.33     0  02:10      1.17    2.58    1.00
  WS02006116WS02004401 CONDUIT    603.12     0  02:10      0.82    0.83    0.90
  WS02006115WS02006116 CONDUIT    604.45     0  02:12      0.88    0.78    0.82
  WS02006113WS02006111 CONDUIT    618.89     0  02:09      2.55    0.74    0.49
  WS02006112WS02006115 CONDUIT    618.86     0  02:09      0.83    0.37    0.90
  WS02006111WS02006112 CONDUIT    599.23     0  02:12      1.64    0.28    0.68
  WS02006110WS02006113 CONDUIT    592.62     0  02:11      1.38    0.54    0.80
  WS02006109WS02006110 CONDUIT    591.53     0  02:10      1.18    1.14    1.00
  WS02004411WS02004412 CONDUIT    601.03     0  02:13      0.98    0.85    0.73
  WS02004401WS02004402 CONDUIT    602.87     0  02:11      0.85    0.72    0.92
  WS02004413WS02003067 CONDUIT    600.91     0  02:14      1.18    0.26    0.62
  WS02004412WS02004413 CONDUIT    600.99     0  02:13      0.88    0.40    0.81
  WS02004410WS02004411 CONDUIT    601.22     0  02:13      0.99    0.82    0.73
  WS02004409WS02004410 CONDUIT    601.35     0  02:12      1.00    0.78    0.72
  WS02004407WS02004409 CONDUIT    601.68     0  02:12      1.49    0.21    0.51
  WS02004406WS02004407 CONDUIT    601.94     0  02:12      1.11    0.27    0.65
  WS02004405WS02004406 CONDUIT    602.35     0  02:12      0.79    1.19    0.99
  WS02004404WS02004405 CONDUIT    602.40     0  02:12      0.97    5.90    1.00
  WS02004403WS02004404 CONDUIT    602.22     0  02:12      0.84    0.44    0.97
  WS02004402WS02004403 CONDUIT    602.24     0  02:10      0.87    0.87    0.93
  WS02004139WS02001211 CONDUIT    285.87     0  03:42      0.57    0.36    0.54
  WS02004138WS02004139 CONDUIT    285.00     0  00:13      2.11    0.06    0.39
  WS02003067WS02003066 CONDUIT    600.90     0  02:14      1.28    0.19    0.43
  WS02001213WS02003059 CONDUIT    295.52     0  03:42      0.59    0.49    0.74
  WS02001212WS02001213 CONDUIT    294.46     0  03:42      1.19    0.45    0.43
  WS02001211WS02001212 CONDUIT    293.87     0  03:42      0.67    0.22    0.59
  WS02003072WS02003073 CONDUIT    909.84     0  02:16      1.71    1.97    0.48
  WS02003069WS02003072 CONDUIT    909.84     0  02:15      1.61    0.44    0.50
  WS02003060WS02003069 CONDUIT    909.53     0  02:15      1.85    0.36    0.45
  WS02003059WS02003060 CONDUIT    297.00     0  03:41      0.82    0.19    0.64
  HS02004901HS02004770 CONDUIT     12.22     0  02:07      0.05    0.05    0.35
  HS02004876HS02004881 CONDUIT     51.32     0  02:08      0.76    0.55    0.10
  HS02004870HS02004876 CONDUIT     41.17     0  02:09      0.52    0.03    0.11
  HS02004842HS02004848 CONDUIT      8.71     0  02:17      0.04    0.01    0.29
  HS02004837HS02004842 CONDUIT      8.85     0  02:14      0.42    0.01    0.30
  HS02004830HS02004837 CONDUIT     32.31     0  02:09      0.50    0.03    0.09
  HS02004824HS02004830 CONDUIT     32.45     0  02:09      0.53    0.04    0.09
  HS02004817HS02004824 CONDUIT     59.84     0  02:10      0.20    0.03    0.43
  HS02004770HS02004777 CONDUIT     64.45     0  02:07      0.26    0.12    0.36
  HS02004799HS02004480 CONDUIT    164.63     0  02:07      0.67    0.21    0.35
  HS02004792HS02004799 CONDUIT    149.69     0  02:07      0.76    0.09    0.28
  HS02004788HS02004792 CONDUIT     86.94     0  02:08      0.90    0.06    0.14
  HS02004785HS02004788 CONDUIT     64.57     0  02:08      0.57    0.49    0.16
  HS02004777HS02004785 CONDUIT     64.44     0  02:07      0.31    0.08    0.29
  HS02004480HS02004478 CONDUIT    195.75     0  02:08      1.06    0.82    0.26
  HS02004479HS02004480 CONDUIT     31.31     0  02:10      0.28    0.03    0.34
  HS02004862HS02004870 CONDUIT     31.19     0  02:09      0.56    0.03    0.08
  HS02004848HS02004852 CONDUIT     13.78     0  02:09      0.38    0.02    0.05
  HS02004856HS02004862 CONDUIT     21.24     0  02:09      0.41    0.02    0.07
  HS02004852HS02004856 CONDUIT     13.76     0  02:09      0.18    0.02    0.11
  HS02004802HS02004478 CONDUIT     78.88     0  02:11      0.38    0.07    0.29
  HS02004478WS02006287 CONDUIT    274.08     0  02:09      1.48    0.08    0.21
  HS02004817HS02004807 CONDUIT     60.62     0  02:11      0.15    0.04    0.56
  HS02004807HS02004802 CONDUIT     78.69     0  02:10      0.32    0.15    0.35
  YS02001759YS02001757 CONDUIT    501.23     0  02:45      0.64    0.36    1.00
  YS02001762YS02001759 CONDUIT    258.04     0  02:32      0.33    0.30    1.00
  YS02001765YS02001762 CONDUIT    257.16     0  02:45      0.33    0.24    1.00
  YS02001770YS02001767 CONDUIT    256.59     0  02:45      0.38    1.02    1.00
  YS02001774YS02001770 CONDUIT    198.02     0  03:07      0.25    0.13    1.00
  YS02001779YS02001774 CONDUIT    198.15     0  03:07      0.25    0.10    1.00
  YS02001649YS02001757 CONDUIT    790.34     0  02:37      1.01    0.48    1.00
  YS02001767YS02001765 CONDUIT    257.22     0  02:44      0.35    0.32    1.00
  YS02006561YS02001783 CONDUIT    842.56     0  02:46      2.14    0.44    0.95
  YS02001783YS02001784 CONDUIT    842.43     0  02:46      1.70    1.16    1.00
  YS02001784YS02001785 CONDUIT    833.37     0  02:45      1.84    1.94    1.00
  YS02001788YS02001790 CONDUIT    829.75     0  02:44      2.39    0.61    1.00
  YS02001790YS02001791 CONDUIT    861.68     0  02:43      2.96    0.94    1.00
  YS02001791YS02001793 CONDUIT    853.59     0  02:42      5.87    0.37    1.00
  YS02001910YS02001907 CONDUIT    310.20     0  03:08      0.49    0.17    1.00
  YS02001786YS02001788 CONDUIT    830.94     0  02:45      2.28    1.60    1.00
  YS02001915YS02001910 CONDUIT    310.10     0  03:08      0.56    0.15    1.00
  YS02001918YS02001915 CONDUIT    140.59     0  03:09      0.44    0.08    0.85
  YS02001923YS02001920 CONDUIT    126.16     0  03:05      0.66    0.06    0.64
  YS02001926YS02001923 CONDUIT    105.60     0  03:05      0.77    0.15    0.32
  YS02001929YS02001926 CONDUIT    100.38     0  03:01      0.84    0.05    0.24
  YS02001920YS02001918 CONDUIT    135.67     0  03:08      0.65    0.13    0.74
  YS02001629YS02163301 CONDUIT    205.85     0  02:19      0.26    0.25    1.00
  YS02001619YS02001622 CONDUIT    183.64     0  02:54      0.67    0.27    1.00
  YS02001622YS02001625 CONDUIT    183.50     0  02:54      0.32    0.10    1.00
  YS02001625YS02001629 CONDUIT    178.39     0  02:08      0.27    0.08    1.00
  YS02163301YS02001633 CONDUIT    206.03     0  02:19      0.26    0.19    1.00
  YS02163601YS02164001 CONDUIT    374.38     0  02:39      0.48    0.33    1.00
  YS02164001YS02001641 CONDUIT    374.51     0  02:39      0.48    0.51    1.00
  YS02001641YS02001644 CONDUIT    374.83     0  02:39      0.48    1.21    1.00
  YS02001647YS02001649 CONDUIT    568.71     0  02:39      0.72    0.30    1.00
  YS02006553YS02006556 CONDUIT    571.94     0  02:46      0.73    0.49    1.00
  YS02006556YS02006558 CONDUIT    571.94     0  02:46      0.73    0.45    1.00
  YSB6556YSB1171       CONDUIT     18.03     0  02:09      0.07    0.02    0.61
  YS02001907YS02006553 CONDUIT    571.94     0  02:46      0.64    0.67    1.00
  YS02006558YS02006561 CONDUIT    836.35     0  02:46      3.34    1.85    1.00
  YS02001633YS02163601 CONDUIT    374.06     0  02:39      0.48    0.39    1.00
  YS02001644YS02001647 CONDUIT    568.33     0  02:39      0.72    0.33    1.00
  YS02001745YS02001748 CONDUIT    609.81     0  02:25      1.53    0.23    0.93
  YS02001748YS02001751 CONDUIT    323.20     0  02:14      1.14    0.16    1.00
  YS02001751YS02001754 CONDUIT    230.67     0  02:25      0.97    0.11    1.00
  YS02001754YS02001757 CONDUIT    231.15     0  02:25      0.33    0.09    1.00
  YS02001882YS02001884 CONDUIT     13.05     0  03:31      0.12    0.01    1.00
  YS02001884YS02001887 CONDUIT     25.53     0  02:48      0.09    0.03    1.00
  YS02001890YS02001895 CONDUIT    302.67     0  02:50      0.46    0.14    1.00
  YS02001895YS02001898 CONDUIT    301.51     0  02:58      0.57    0.52    1.00
  YS02001898YS02001901 CONDUIT    298.38     0  02:47      0.49    0.19    1.00
  YS02001901YS02001904 CONDUIT    297.47     0  02:46      0.46    0.46    1.00
  YS02001904YS02001907 CONDUIT    296.47     0  02:46      0.40    0.10    1.00
  YS02001887YS02001890 CONDUIT    302.47     0  02:49      0.40    0.52    1.00
  YS02001652YS02001649 CONDUIT    296.19     0  02:21      0.58    0.15    1.00
  YS02001655YS02001652 CONDUIT    296.11     0  02:21      1.05    0.14    1.00
  YS02001658YS02001655 CONDUIT    381.56     0  02:13      1.31    0.16    1.00
  YS02001661YS02001658 CONDUIT    615.63     0  02:21      1.61    0.24    1.00
  YS02001664YS02001661 CONDUIT    623.86     0  02:42      1.57    0.20    0.71
  YSB1154YSB6556       CONDUIT     17.99     0  02:06      0.16    0.03    0.50
  YSB1174YSB1171       CONDUIT     13.75     0  01:36      0.06    0.02    0.62
  YSB1171HS02004479    CONDUIT     31.20     0  02:09      0.54    0.02    0.48
  HS02004881HS02006253 CONDUIT     56.61     0  02:08      1.79    0.01    0.25
  YS02001793JiankangQianchi CONDUIT    815.28     0  03:02     16.36    0.06    1.00
  YS02001757CaochengTiaoxuchi CONDUIT   1463.50     0  02:38      2.39    0.64    1.00
  WSF200WS02003060     CONDUIT    600.97     0  02:13      1.71    0.13    0.35
  1                    CONDUIT    911.66     0  02:16      3.24    0.32    0.39
  2                    CONDUIT    138.07     0  03:11      5.30    0.33    0.40
  3                    CONDUIT    520.69     0  02:10      9.85    0.83    0.70
  4                    CONDUIT      0.00     0  00:00      0.00    0.00    0.00
  CC-Pump-1            PUMP       200.00     0  01:42              1.00
  CC-Pump-2            PUMP       200.00     0  03:10              1.00
  JK-Pump-1            PUMP       300.00     0  00:10              1.00
  JK-Pump-2            PUMP       300.00     0  01:47              1.00
  XR-Pump-1            PUMP        95.00     0  00:10              1.00
  XR-Pump-2            PUMP        95.00     0  00:10              1.00
  XR-Pump-3            PUMP        95.00     0  00:50              1.00
  XR-Pump-4            PUMP        95.00     0  00:10              1.00
  
  
  ***************************
  Flow Classification Summary
  ***************************
  
  -------------------------------------------------------------------------------------
                      Adjusted    ---------- Fraction of Time in Flow Class ---------- 
                       /Actual         Up    Down  Sub   Sup   Up    Down  Norm  Inlet 
  Conduit               Length    Dry  Dry   Dry   Crit  Crit  Crit  Crit  Ltd   Ctrl  
  -------------------------------------------------------------------------------------
  WS02003066WSF200        1.00   0.04  0.00  0.00  0.00  0.96  0.00  0.00  0.61  0.00
  WS02006287WS02006284    1.00   0.03  0.01  0.00  0.56  0.40  0.00  0.00  0.69  0.00
  WS02006284WS02006280    1.00   0.04  0.00  0.00  0.00  0.00  0.00  0.96  0.00  0.00
  WS02006280WS02006229    1.00   0.04  0.00  0.00  0.00  0.00  0.00  0.96  0.00  0.00
  WS02006229WS02006228    1.00   0.00  0.00  0.00  1.00  0.00  0.00  0.00  0.00  0.00
  WS02006256WS02006235    1.00   0.00  0.00  0.00  1.00  0.00  0.00  0.00  0.00  0.00
  WS02006253WS02006251    1.00   0.02  0.01  0.00  0.96  0.00  0.00  0.00  0.00  0.00
  WS02006252WS02006251    1.00   0.06  0.00  0.00  0.00  0.00  0.94  0.00  0.00  0.00
  WS02006251WS02006249    1.00   0.00  0.00  0.00  1.00  0.00  0.00  0.00  0.20  0.00
  WS02006249WS02006248    1.00   0.00  0.01  0.00  0.93  0.00  0.06  0.00  0.00  0.00
  WS02006248WS02006247    1.00   0.01  0.00  0.00  0.98  0.00  0.00  0.01  0.10  0.00
  WS02006247WS02006245    1.00   0.01  0.00  0.00  0.99  0.00  0.00  0.00  0.00  0.00
  WS02006245WS02006243    1.00   0.01  0.00  0.00  0.97  0.00  0.00  0.02  0.01  0.00
  WS02006243WS02006242    1.00   0.00  0.00  0.00  0.99  0.00  0.00  0.00  0.16  0.00
  WS02006242WS02006240    1.00   0.00  0.00  0.00  1.00  0.00  0.00  0.00  0.00  0.00
  WS02006240WS02006239    1.00   0.00  0.00  0.00  0.98  0.00  0.00  0.02  0.01  0.00
  WS02006239WS02006238    1.00   0.00  0.00  0.00  1.00  0.00  0.00  0.00  0.00  0.00
  WS02006238WS02006235    1.00   0.00  0.00  0.00  1.00  0.00  0.00  0.00  0.00  0.00
  WS02006235WS02006234    1.00   0.00  0.00  0.00  0.98  0.00  0.02  0.00  0.00  0.00
  WS02006234WS02006232    1.00   0.00  0.00  0.00  1.00  0.00  0.00  0.00  0.00  0.00
  WS02006232WS02006231    1.00   0.00  0.00  0.00  1.00  0.00  0.00  0.00  0.00  0.00
  WS02006231WS02006230    1.00   0.00  0.00  0.00  0.52  0.00  0.48  0.00  0.00  0.00
  WS02006230WS02006229    1.00   0.00  0.00  0.00  0.99  0.00  0.00  0.01  0.01  0.00
  WS02006228WS02006109    1.00   0.00  0.00  0.00  1.00  0.00  0.00  0.00  0.00  0.00
  WS02006116WS02004401    1.00   0.02  0.00  0.00  0.98  0.00  0.00  0.00  0.00  0.00
  WS02006115WS02006116    1.00   0.02  0.00  0.00  0.98  0.00  0.00  0.00  0.00  0.00
  WS02006113WS02006111    1.00   0.01  0.00  0.00  0.00  0.99  0.00  0.00  0.12  0.00
  WS02006112WS02006115    1.00   0.01  0.01  0.00  0.98  0.00  0.00  0.00  0.00  0.00
  WS02006111WS02006112    1.00   0.01  0.00  0.00  0.98  0.00  0.00  0.00  0.96  0.00
  WS02006110WS02006113    1.00   0.00  0.01  0.00  0.99  0.00  0.00  0.00  0.00  0.00
  WS02006109WS02006110    1.00   0.00  0.00  0.00  0.99  0.00  0.01  0.00  0.00  0.00
  WS02004411WS02004412    1.00   0.03  0.00  0.00  0.97  0.00  0.00  0.00  0.00  0.00
  WS02004401WS02004402    1.00   0.02  0.00  0.00  0.98  0.00  0.00  0.00  0.00  0.00
  WS02004413WS02003067    1.00   0.03  0.01  0.00  0.00  0.00  0.96  0.00  0.00  0.00
  WS02004412WS02004413    1.00   0.03  0.00  0.00  0.97  0.00  0.00  0.00  0.02  0.00
  WS02004410WS02004411    1.00   0.03  0.00  0.00  0.97  0.00  0.00  0.00  0.02  0.00
  WS02004409WS02004410    1.00   0.03  0.00  0.00  0.97  0.00  0.00  0.00  0.03  0.00
  WS02004407WS02004409    1.00   0.03  0.00  0.00  0.97  0.00  0.00  0.00  0.92  0.00
  WS02004406WS02004407    1.00   0.00  0.03  0.00  0.97  0.00  0.00  0.00  0.00  0.00
  WS02004405WS02004406    1.00   0.00  0.00  0.00  1.00  0.00  0.00  0.00  0.01  0.00
  WS02004404WS02004405    1.00   0.00  0.00  0.00  1.00  0.00  0.00  0.00  0.00  0.00
  WS02004403WS02004404    1.00   0.00  0.02  0.00  0.98  0.00  0.00  0.00  0.00  0.00
  WS02004402WS02004403    1.00   0.02  0.00  0.00  0.98  0.00  0.00  0.00  0.00  0.00
  WS02004139WS02001211    1.00   0.00  0.00  0.00  1.00  0.00  0.00  0.00  0.00  0.00
  WS02004138WS02004139    1.00   0.00  0.00  0.00  0.99  0.00  0.00  0.00  0.99  0.00
  WS02003067WS02003066    1.00   0.04  0.00  0.00  0.96  0.00  0.00  0.00  0.00  0.00
  WS02001213WS02003059    1.00   0.00  0.00  0.00  1.00  0.00  0.00  0.00  0.00  0.00
  WS02001212WS02001213    1.00   0.00  0.00  0.00  0.92  0.00  0.08  0.00  0.00  0.00
  WS02001211WS02001212    1.00   0.00  0.00  0.00  1.00  0.00  0.00  0.00  0.00  0.00
  WS02003072WS02003073    1.00   0.00  0.00  0.00  0.00  0.00  0.00  1.00  0.00  0.00
  WS02003069WS02003072    1.00   0.00  0.00  0.00  1.00  0.00  0.00  0.00  0.20  0.00
  WS02003060WS02003069    1.00   0.00  0.00  0.00  0.99  0.01  0.00  0.00  0.03  0.00
  WS02003059WS02003060    1.00   0.00  0.00  0.00  1.00  0.00  0.00  0.00  0.01  0.00
  HS02004901HS02004770    1.00   0.04  0.00  0.00  0.96  0.00  0.00  0.00  0.00  0.00
  HS02004876HS02004881    1.00   0.01  0.00  0.00  0.99  0.00  0.00  0.00  0.00  0.00
  HS02004870HS02004876    1.00   0.00  0.00  0.00  0.99  0.01  0.00  0.00  0.95  0.00
  HS02004842HS02004848    1.00   0.00  0.04  0.00  0.96  0.00  0.00  0.00  0.59  0.00
  HS02004837HS02004842    1.00   0.00  0.00  0.00  1.00  0.00  0.00  0.00  0.11  0.00
  HS02004830HS02004837    1.00   0.00  0.00  0.00  1.00  0.00  0.00  0.00  0.99  0.00
  HS02004824HS02004830    1.00   0.00  0.00  0.00  1.00  0.00  0.00  0.00  0.00  0.00
  HS02004817HS02004824    1.00   0.00  0.00  0.00  1.00  0.00  0.00  0.00  1.00  0.00
  HS02004770HS02004777    1.00   0.00  0.04  0.00  0.96  0.00  0.00  0.00  0.03  0.00
  HS02004799HS02004480    1.00   0.00  0.02  0.00  0.96  0.00  0.02  0.00  0.00  0.00
  HS02004792HS02004799    1.00   0.00  0.00  0.00  1.00  0.00  0.00  0.00  0.98  0.00
  HS02004788HS02004792    1.00   0.00  0.00  0.00  1.00  0.00  0.00  0.00  0.98  0.00
  HS02004785HS02004788    1.00   0.00  0.00  0.00  1.00  0.00  0.00  0.00  0.00  0.00
  HS02004777HS02004785    1.00   0.00  0.00  0.00  1.00  0.00  0.00  0.00  0.12  0.00
  HS02004480HS02004478    1.00   0.04  0.00  0.00  0.61  0.00  0.00  0.35  0.00  0.00
  HS02004479HS02004480    1.00   0.02  0.00  0.00  0.98  0.00  0.00  0.00  0.11  0.00
  HS02004862HS02004870    1.00   0.00  0.00  0.00  1.00  0.00  0.00  0.00  0.04  0.00
  HS02004848HS02004852    1.00   0.04  0.00  0.00  0.96  0.00  0.00  0.00  0.76  0.00
  HS02004856HS02004862    1.00   0.00  0.04  0.00  0.96  0.00  0.00  0.00  0.83  0.00
  HS02004852HS02004856    1.00   0.04  0.00  0.00  0.96  0.00  0.00  0.00  0.86  0.00
  HS02004802HS02004478    1.00   0.04  0.00  0.00  0.96  0.00  0.00  0.00  0.02  0.00
  HS02004478WS02006287    1.00   0.04  0.00  0.00  0.69  0.27  0.00  0.00  0.66  0.00
  HS02004817HS02004807    1.00   0.00  0.04  0.00  0.96  0.00  0.00  0.00  0.01  0.00
  HS02004807HS02004802    1.00   0.04  0.00  0.00  0.96  0.00  0.00  0.00  0.00  0.00
  YS02001759YS02001757    1.00   0.00  0.00  0.00  1.00  0.00  0.00  0.00  0.15  0.00
  YS02001762YS02001759    1.00   0.00  0.00  0.00  1.00  0.00  0.00  0.00  0.03  0.00
  YS02001765YS02001762    1.00   0.00  0.00  0.00  1.00  0.00  0.00  0.00  0.14  0.00
  YS02001770YS02001767    1.00   0.00  0.00  0.00  1.00  0.00  0.00  0.00  0.00  0.00
  YS02001774YS02001770    1.00   0.00  0.04  0.00  0.96  0.00  0.00  0.00  0.03  0.00
  YS02001779YS02001774    1.00   0.00  0.00  0.00  1.00  0.00  0.00  0.00  0.18  0.00
  YS02001649YS02001757    1.00   0.00  0.00  0.00  1.00  0.00  0.00  0.00  0.16  0.00
  YS02001767YS02001765    1.00   0.00  0.00  0.00  1.00  0.00  0.00  0.00  0.00  0.00
  YS02006561YS02001783    1.00   0.05  0.00  0.00  0.41  0.54  0.00  0.00  0.60  0.00
  YS02001783YS02001784    1.00   0.00  0.05  0.00  0.95  0.00  0.00  0.00  0.00  0.00
  YS02001784YS02001785    1.00   0.00  0.00  0.00  1.00  0.00  0.00  0.00  0.17  0.00
  YS02001788YS02001790    1.00   0.00  0.00  0.00  0.41  0.59  0.00  0.00  0.53  0.00
  YS02001790YS02001791    1.00   0.00  0.00  0.00  0.38  0.62  0.00  0.00  0.43  0.00
  YS02001791YS02001793    1.00   0.00  0.00  0.00  0.40  0.60  0.00  0.00  0.02  0.00
  YS02001910YS02001907    1.00   0.00  0.00  0.00  0.98  0.00  0.00  0.02  0.12  0.00
  YS02001786YS02001788    1.00   0.00  0.00  0.00  0.39  0.61  0.00  0.00  0.00  0.00
  YS02001915YS02001910    1.00   0.00  0.00  0.00  0.98  0.02  0.00  0.00  0.16  0.00
  YS02001918YS02001915    1.00   0.00  0.00  0.00  0.98  0.01  0.00  0.00  0.60  0.00
  YS02001923YS02001920    1.00   0.00  0.00  0.00  1.00  0.00  0.00  0.00  0.88  0.00
  YS02001926YS02001923    1.00   0.00  0.03  0.00  0.05  0.00  0.92  0.00  0.00  0.00
  YS02001929YS02001926    1.00   0.00  0.04  0.00  0.96  0.00  0.00  0.00  0.87  0.00
  YS02001920YS02001918    1.00   0.00  0.00  0.00  1.00  0.00  0.00  0.00  0.00  0.00
  YS02001629YS02163301    1.00   0.04  0.00  0.00  0.96  0.00  0.00  0.00  0.00  0.00
  YS02001619YS02001622    1.00   0.04  0.00  0.00  0.96  0.00  0.00  0.00  0.00  0.00
  YS02001622YS02001625    1.00   0.04  0.00  0.00  0.96  0.00  0.00  0.00  0.04  0.00
  YS02001625YS02001629    1.00   0.04  0.01  0.00  0.94  0.00  0.01  0.00  0.00  0.00
  YS02163301YS02001633    1.00   0.00  0.04  0.00  0.96  0.00  0.00  0.00  0.00  0.00
  YS02163601YS02164001    1.00   0.00  0.03  0.00  0.97  0.00  0.00  0.00  0.00  0.00
  YS02164001YS02001641    1.00   0.00  0.03  0.00  0.97  0.00  0.00  0.00  0.06  0.00
  YS02001641YS02001644    1.00   0.00  0.00  0.00  1.00  0.00  0.00  0.00  0.00  0.00
  YS02001647YS02001649    1.00   0.00  0.04  0.00  0.96  0.00  0.00  0.00  0.01  0.00
  YS02006553YS02006556    1.00   0.00  0.00  0.00  1.00  0.00  0.00  0.00  0.03  0.00
  YS02006556YS02006558    1.00   0.00  0.00  0.00  1.00  0.00  0.00  0.00  0.00  0.00
  YSB6556YSB1171          1.00   0.02  0.01  0.00  0.96  0.00  0.00  0.00  0.00  0.00
  YS02001907YS02006553    1.00   0.00  0.01  0.00  0.99  0.00  0.00  0.00  0.00  0.00
  YS02006558YS02006561    1.00   0.05  0.00  0.00  0.10  0.85  0.00  0.00  0.52  0.00
  YS02001633YS02163601    1.00   0.00  0.00  0.00  1.00  0.00  0.00  0.00  0.15  0.00
  YS02001644YS02001647    1.00   0.00  0.04  0.00  0.96  0.00  0.00  0.00  0.00  0.00
  YS02001745YS02001748    1.00   0.00  0.00  0.00  0.90  0.01  0.00  0.09  0.04  0.00
  YS02001748YS02001751    1.00   0.00  0.00  0.00  0.98  0.02  0.00  0.00  0.14  0.00
  YS02001751YS02001754    1.00   0.00  0.00  0.00  0.95  0.00  0.00  0.05  0.02  0.00
  YS02001754YS02001757    1.00   0.00  0.00  0.00  1.00  0.00  0.00  0.00  0.18  0.00
  YS02001882YS02001884    1.00   0.04  0.00  0.00  0.96  0.00  0.00  0.00  0.00  0.00
  YS02001884YS02001887    1.00   0.03  0.01  0.00  0.97  0.00  0.00  0.00  0.00  0.00
  YS02001890YS02001895    1.00   0.00  0.04  0.00  0.96  0.00  0.00  0.00  0.00  0.00
  YS02001895YS02001898    1.00   0.04  0.00  0.00  0.95  0.00  0.00  0.00  0.00  0.00
  YS02001898YS02001901    1.00   0.04  0.00  0.00  0.96  0.00  0.00  0.00  0.01  0.00
  YS02001901YS02001904    1.00   0.04  0.00  0.00  0.96  0.00  0.00  0.00  0.00  0.00
  YS02001904YS02001907    1.00   0.00  0.04  0.00  0.96  0.00  0.00  0.00  0.00  0.00
  YS02001887YS02001890    1.00   0.00  0.00  0.00  0.98  0.00  0.02  0.00  0.00  0.00
  YS02001652YS02001649    1.00   0.00  0.00  0.00  1.00  0.00  0.00  0.00  0.16  0.00
  YS02001655YS02001652    1.00   0.00  0.00  0.00  0.95  0.00  0.00  0.05  0.02  0.00
  YS02001658YS02001655    1.00   0.00  0.04  0.00  0.94  0.02  0.00  0.00  0.03  0.00
  YS02001661YS02001658    1.00   0.04  0.00  0.00  0.90  0.06  0.00  0.00  0.04  0.00
  YS02001664YS02001661    1.00   0.04  0.00  0.00  0.86  0.10  0.00  0.00  0.19  0.00
  YSB1154YSB6556          1.00   0.04  0.00  0.00  0.96  0.00  0.00  0.00  0.02  0.00
  YSB1174YSB1171          1.00   0.02  0.01  0.00  0.97  0.00  0.00  0.00  0.00  0.00
  YSB1171HS02004479       1.00   0.02  0.00  0.00  0.97  0.00  0.00  0.00  0.10  0.00
  HS02004881HS02006253    1.00   0.03  0.00  0.00  0.92  0.00  0.00  0.05  0.76  0.00
  YS02001793JiankangQianchi    1.00   0.00  0.00  0.00  0.58  0.42  0.00  0.00  0.18  0.00
  YS02001757CaochengTiaoxuchi    1.00   0.00  0.06  0.00  0.92  0.02  0.00  0.00  0.00  0.00
  WSF200WS02003060        1.00   0.00  0.04  0.00  0.95  0.01  0.00  0.00  0.17  0.00
  1                       1.00   0.00  0.00  0.00  0.00  1.00  0.00  0.00  0.30  0.00
  2                       1.00   0.71  0.00  0.00  0.00  0.29  0.00  0.00  0.02  0.00
  3                       1.00   0.06  0.00  0.00  0.00  0.94  0.00  0.00  0.17  0.00
  4                       1.00   1.00  0.00  0.00  0.00  0.00  0.00  0.00  0.00  0.00
  
  
  *************************
  Conduit Surcharge Summary
  *************************
  
  ----------------------------------------------------------------------------
                                                           Hours        Hours 
                         --------- Hours Full --------   Above Full   Capacity
  Conduit                Both Ends  Upstream  Dnstream   Normal Flow   Limited
  ----------------------------------------------------------------------------
  WS02006229WS02006228        1.87      1.91      1.87      6.13         1.87
  WS02006256WS02006235        6.45      6.45      7.98      3.98         0.01
  WS02006252WS02006251        0.26      0.26      0.42      0.38         0.01
  WS02006251WS02006249        0.01      0.01      0.01      0.29         0.01
  WS02006249WS02006248        0.01      0.01      0.01      5.99         0.01
  WS02006247WS02006245        0.01      0.01      0.01      6.06         0.01
  WS02006243WS02006242        0.01      0.01      1.55      0.01         0.01
  WS02006242WS02006240        1.02      1.02      1.65      0.46         0.01
  WS02006240WS02006239        1.17      1.17      1.52      0.01         0.01
  WS02006239WS02006238        1.66      1.66      1.70      0.01         0.01
  WS02006238WS02006235        1.68      1.68      1.73      0.01         0.01
  WS02006235WS02006234        1.51      1.51      1.66      6.46         0.01
  WS02006234WS02006232        1.61      1.61      1.78      0.01         0.01
  WS02006232WS02006231        0.67      0.67      1.78      0.01         0.01
  WS02006231WS02006230        0.13      0.13      0.75      6.53         0.01
  WS02006230WS02006229        2.25      5.11      2.25      6.67         2.25
  WS02006228WS02006109        1.89      2.02      1.89      6.23         1.89
  WS02006112WS02006115        0.01      0.01      1.46      0.01         0.01
  WS02006111WS02006112        0.01      0.01      6.14      0.01         0.01
  WS02006110WS02006113        0.01      0.01      1.95      0.01         0.01
  WS02006109WS02006110        1.19      1.19      2.02      1.20         0.01
  WS02004405WS02004406        0.01      0.01      0.01      1.36         0.01
  WS02004404WS02004405        0.01      0.33      0.01      6.42         0.01
  WS02004403WS02004404        0.01      0.01      0.33      0.01         0.01
  WS02003072WS02003073        0.01      0.01      0.01      6.10         0.01
  YS02001759YS02001757        6.15      6.15      6.21      0.01         0.01
  YS02001762YS02001759        6.12      6.12      6.15      0.01         0.01
  YS02001765YS02001762        6.10      6.10      6.12      0.01         0.01
  YS02001770YS02001767        6.09      6.09      6.09      0.08         0.80
  YS02001774YS02001770        6.06      6.06      6.12      0.01         0.01
  YS02001779YS02001774        5.87      5.87      6.12      0.01         0.01
  YS02001649YS02001757        6.13      6.13      6.21      0.01         0.01
  YS02001767YS02001765        6.09      6.09      6.10      0.01         0.01
  YS02006561YS02001783        0.01      0.01      0.71      0.01         0.01
  YS02001783YS02001784        0.70      0.71      0.75      1.04         0.49
  YS02001784YS02001785        0.70      0.75      0.70      2.02         0.70
  YS02001788YS02001790        0.70      0.70      2.08      0.01         0.01
  YS02001790YS02001791        2.08      2.08      2.21      0.01         0.01
  YS02001791YS02001793        2.21      2.21      2.50      0.01         0.01
  YS02001910YS02001907        0.53      0.53      1.44      0.01         0.01
  YS02001786YS02001788        0.70      0.70      0.70      1.63         0.69
  YS02001915YS02001910        0.16      0.16      0.53      0.01         0.01
  YS02001918YS02001915        0.01      0.01      0.16      0.01         0.01
  YS02001629YS02163301        6.03      6.03      6.08      0.01         0.01
  YS02001619YS02001622        5.68      5.68      5.74      0.01         0.01
  YS02001622YS02001625        5.74      5.74      5.93      0.01         0.01
  YS02001625YS02001629        5.69      5.69      5.93      0.01         0.01
  YS02163301YS02001633        6.08      6.08      6.11      0.01         0.01
  YS02163601YS02164001        6.10      6.10      6.13      0.01         0.01
  YS02164001YS02001641        6.10      6.10      6.11      0.01         0.03
  YS02001641YS02001644        6.11      6.11      6.11      1.04         1.23
  YS02001647YS02001649        5.92      5.92      6.13      0.01         0.01
  YS02006553YS02006556        1.01      1.01      1.51      0.01         0.01
  YS02006556YS02006558        1.29      1.29      1.59      0.01         0.01
  YS02001907YS02006553        2.04      2.04      2.24      0.01         0.01
  YS02006558YS02006561        0.35      0.95      0.35      1.89         0.35
  YS02001633YS02163601        6.10      6.10      6.13      0.01         0.01
  YS02001644YS02001647        5.92      5.92      6.11      0.01         0.01
  YS02001745YS02001748        0.01      0.01      5.42      0.01         0.01
  YS02001748YS02001751        5.51      5.51      5.66      0.01         0.01
  YS02001751YS02001754        5.66      5.66      5.90      0.01         0.01
  YS02001754YS02001757        5.92      5.92      6.21      0.01         0.01
  YS02001882YS02001884        0.19      0.19      0.26      0.01         0.01
  YS02001884YS02001887        0.36      0.36      0.39      0.01         0.01
  YS02001890YS02001895        0.11      0.11      0.65      0.01         0.01
  YS02001895YS02001898        0.03      0.03      0.11      0.01         0.01
  YS02001898YS02001901        0.14      0.14      0.34      0.01         0.01
  YS02001901YS02001904        0.31      0.31      0.34      0.01         0.01
  YS02001904YS02001907        0.31      0.31      1.54      0.01         0.01
  YS02001887YS02001890        0.44      0.44      0.47      0.01         0.01
  YS02001652YS02001649        5.92      5.92      6.13      0.01         0.01
  YS02001655YS02001652        5.70      5.70      5.91      0.01         0.01
  YS02001658YS02001655        5.46      5.46      5.70      0.01         0.01
  YS02001661YS02001658        0.19      0.19      5.46      0.01         0.01
  YS02001664YS02001661        0.01      0.01      1.14      0.01         0.01
  YS02001793JiankangQianchi        2.42      2.42      3.66      0.01         0.01
  YS02001757CaochengTiaoxuchi        5.33      5.33      6.21      0.01         0.01
  
  
  ***************
  Pumping Summary
  ***************
  
  ---------------------------------------------------------------------------------------------------------
                                                  Min       Avg       Max     Total     Power    % Time Off
                        Percent   Number of      Flow      Flow      Flow    Volume     Usage    Pump Curve
  Pump                 Utilized   Start-Ups       LPS       LPS       LPS  10^6 ltr     Kw-hr    Low   High
  ---------------------------------------------------------------------------------------------------------
  CC-Pump-1               77.41           1      0.00    197.30    200.00     4.371      5.08    0.0    8.7
  CC-Pump-2                6.25           1      0.00    134.28    200.00     0.240      0.29    0.0    0.0
  JK-Pump-1               43.75           1      0.00    256.65    300.00     2.102     25.73    0.0    0.0
  JK-Pump-2               89.58           1      0.00    240.63    300.00     5.418     56.19    0.0    0.0
  XR-Pump-1               66.67           2      0.00     91.15     95.00     1.710     10.62    0.0    0.0
  XR-Pump-2               43.75           1      0.00     90.75     95.00     1.140     14.96    0.0    0.0
  XR-Pump-3               89.58           1      0.00     94.14     95.00     2.394     19.65    0.0    0.0
  XR-Pump-4               97.92           1      0.00     94.01     95.00     2.622     22.61    0.0    0.0
  

  Analysis begun on:  Wed Dec 15 10:49:12 2021
  Analysis ended on:  Wed Dec 15 10:49:16 2021
  Total elapsed time: 00:00:04