
  EPA STORM WATER MANAGEMENT MODEL - VERSION 5.1 (Build 5.3.0.dev0)
  --------------------------------------------------------------

  WARNING 04: minimum elevation drop used for Conduit WS02004404WS02004405
  WARNING 03: negative offset ignored for Link YS02001904YS02001907
  
  *********************************************************
  NOTE: The summary statistics displayed in this report are
  based on results found at every computational time step,  
  not just on results from each reporting time step.
  *********************************************************
  
  ****************
  Analysis Options
  ****************
  Flow Units ............... LPS
  Process Models:
    Rainfall/Runoff ........ YES
    RDII ................... NO
    Snowmelt ............... NO
    Groundwater ............ NO
    Flow Routing ........... YES
    Ponding Allowed ........ NO
    Water Quality .......... NO
  Infiltration Method ...... HORTON
  Flow Routing Method ...... DYNWAVE
  Surcharge Method ......... EXTRAN
  Starting Date ............ 08/28/2015 08:00:00
  Ending Date .............. 08/28/2015 16:00:00
  Antecedent Dry Days ...... 8.0
  Report Time Step ......... 00:01:00
  Wet Time Step ............ 00:01:00
  Dry Time Step ............ 00:01:00
  Routing Time Step ........ 5.00 sec
  Variable Time Step ....... YES
  Maximum Trials ........... 8
  Number of Threads ........ 4
  Head Tolerance ........... 0.001500 m
  
  
  **************************        Volume         Depth
  Runoff Quantity Continuity     hectare-m            mm
  **************************     ---------       -------
  Total Precipitation ......         4.854        10.627
  Evaporation Loss .........         0.000         0.000
  Infiltration Loss ........         1.246         2.729
  Surface Runoff ...........         2.622         5.740
  Final Storage ............         0.986         2.160
  Continuity Error (%) .....        -0.015
  
  
  **************************        Volume        Volume
  Flow Routing Continuity        hectare-m      10^6 ltr
  **************************     ---------     ---------
  Dry Weather Inflow .......         0.630         6.296
  Wet Weather Inflow .......         2.621        26.209
  Groundwater Inflow .......         0.000         0.000
  RDII Inflow ..............         0.000         0.000
  External Inflow ..........         0.105         1.045
  External Outflow .........         2.252        22.518
  Flooding Loss ............         0.592         5.922
  Evaporation Loss .........         0.000         0.000
  Exfiltration Loss ........         0.000         0.000
  Initial Stored Volume ....         0.076         0.761
  Final Stored Volume ......         0.631         6.310
  Continuity Error (%) .....        -1.279
  
  
  *************************
  Highest Continuity Errors
  *************************
  Node HS02004842 (17.66%)
  Node YS02001884 (11.79%)
  Node YS02001774 (9.26%)
  Node JK-storage (-5.49%)
  Node YSB1171 (3.62%)
  
  
  ***************************
  Time-Step Critical Elements
  ***************************
  Link WS02006252WS02006251 (61.74%)
  Link 3 (32.83%)
  Link WS02006238WS02006235 (1.00%)
  
  
  ********************************
  Highest Flow Instability Indexes
  ********************************
  Link WS02006113WS02006111 (36)
  Link YS02163301YS02001633 (35)
  Link YS02001629YS02163301 (35)
  Link YS02163601YS02164001 (34)
  Link YS02001619YS02001622 (33)
  
  
  *************************
  Routing Time Step Summary
  *************************
  Minimum Time Step           :     0.33 sec
  Average Time Step           :     0.77 sec
  Maximum Time Step           :     5.00 sec
  Percent in Steady State     :    -0.00
  Average Iterations per Step :     4.42
  Percent Not Converging      :    21.04
  
  
  ***************************
  Subcatchment Runoff Summary
  ***************************
  
  ------------------------------------------------------------------------------------------------------------------------------
                            Total      Total      Total      Total     Imperv       Perv      Total       Total     Peak  Runoff
                           Precip      Runon       Evap      Infil     Runoff     Runoff     Runoff      Runoff   Runoff   Coeff
  Subcatchment                 mm         mm         mm         mm         mm         mm         mm    10^6 ltr      LPS
  ------------------------------------------------------------------------------------------------------------------------------
  sub0                      10.63       0.00       0.00       0.74       8.62       0.00       8.62        0.01     1.33   0.811
  sub1                      10.63       0.00       0.00       1.17       8.20       0.00       8.20        0.05     9.09   0.772
  sub2                      10.63       0.00       0.00       3.93       5.79       0.00       5.79        0.05     8.42   0.545
  sub3                      10.63       0.00       0.00       3.93       5.75       0.00       5.75        0.13    19.27   0.541
  sub4                      10.63       0.00       0.00       1.17       8.06       0.00       8.06        0.17    23.93   0.758
  sub5                      10.63       0.00       0.00       0.74       8.57       0.00       8.57        0.10    16.17   0.807
  sub7                      10.63       0.00       0.00       0.96       8.42       0.00       8.42        0.03     5.13   0.792
  sub8                      10.63       0.00       0.00       0.96       8.41       0.00       8.41        0.05     9.46   0.791
  sub9                      10.63       0.00       0.00       0.96       8.40       0.00       8.40        0.04     7.08   0.791
  sub10                     10.63       0.00       0.00       0.85       8.49       0.00       8.49        0.09    15.87   0.798
  sub11                     10.63       0.00       0.00       0.85       8.50       0.00       8.50        0.10    17.56   0.800
  sub12                     10.63       0.00       0.00       1.38       8.06       0.00       8.06        0.07    13.15   0.758
  sub14                     10.63       0.00       0.00       0.96       8.40       0.00       8.40        0.08    13.93   0.791
  sub15                     10.63       0.00       0.00       3.19       6.46       0.00       6.46        0.11    19.14   0.608
  sub16                     10.63       0.00       0.00       3.51       6.20       0.00       6.20        0.06    12.01   0.584
  sub17                     10.63       0.00       0.00       3.40       6.29       0.00       6.29        0.05     9.91   0.592
  sub22                     10.63       0.00       0.00       4.57       5.27       0.00       5.27        0.33    59.53   0.496
  sub23                     10.63       0.00       0.00       3.93       5.83       0.00       5.83        0.28    50.05   0.548
  sub60                     10.63       0.00       0.00       1.28       6.58       0.00       6.58        2.00   196.13   0.619
  sub61                     10.63       0.00       0.00       1.81       6.73       0.00       6.73        2.07   224.83   0.633
  sub62                     10.63       0.00       0.00       0.85       7.30       0.00       7.30        2.25   236.97   0.687
  sub63                     10.63       0.00       0.00       3.08       5.90       0.00       5.90        1.78   199.96   0.555
  sub64                     10.63       0.00       0.00       1.59       6.31       0.00       6.31        1.92   187.22   0.594
  sub65                     10.63       0.00       0.00       1.38       6.42       0.00       6.42        1.97   190.91   0.604
  sub66                     10.63       0.00       0.00       3.08       5.43       0.00       5.43        1.66   167.73   0.511
  sub67                     10.63       0.00       0.00       0.85       7.74       0.00       7.74        2.39   272.25   0.728
  sub68                     10.63       0.00       0.00       1.49       7.08       0.00       7.08        2.18   241.26   0.666
  sub69                     10.63       0.00       0.00       1.59       7.37       0.00       7.37        1.72   204.41   0.694
  sub70                     10.63       7.52       0.00       6.16       9.77       0.01       9.77        2.24   229.02   0.538
  sub71                     10.63       0.00       0.00       0.85       7.10       0.00       7.10        1.68   170.86   0.668
  sub72                     10.63       0.00       0.00       0.74       5.58       0.00       5.58        1.14    91.59   0.526
  sub73                     10.63       9.51       0.00       6.85      10.58       0.00      10.58        2.49   215.21   0.525
  sub74                     10.63       0.00       0.00       7.97       2.20       0.00       2.20        0.88   108.49   0.207
  
  
  ******************
  Node Depth Summary
  ******************
  
  ---------------------------------------------------------------------------------
                                 Average  Maximum  Maximum  Time of Max    Reported
                                   Depth    Depth      HGL   Occurrence   Max Depth
  Node                 Type       Meters   Meters   Meters  days hr:min      Meters
  ---------------------------------------------------------------------------------
  WS02001211           JUNCTION     0.70     0.73     5.56     0  02:11        0.73
  WS02001212           JUNCTION     0.42     0.45     5.52     0  02:09        0.45
  WS02001213           JUNCTION     0.66     0.71     5.48     0  02:09        0.71
  WS02003069           JUNCTION     0.48     0.56     5.15     0  02:08        0.56
  WS02003072           JUNCTION     0.54     0.62     4.99     0  02:09        0.62
  WS02003073           JUNCTION     0.33     0.38     4.45     0  02:09        0.38
  WS02003060           JUNCTION     0.42     0.50     5.43     0  02:08        0.50
  WS02003066           JUNCTION     0.25     0.31     5.86     0  02:04        0.31
  WS02003059           JUNCTION     0.71     0.77     5.46     0  02:09        0.77
  WS02003067           JUNCTION     0.60     0.71     6.03     0  02:04        0.71
  WS02004401           JUNCTION     0.71     0.88     6.88     0  02:01        0.88
  WS02004402           JUNCTION     0.74     0.91     6.87     0  02:01        0.90
  WS02004403           JUNCTION     0.76     0.92     6.85     0  02:01        0.92
  WS02004404           JUNCTION     0.84     0.99     6.84     0  02:01        0.99
  WS02004406           JUNCTION     0.84     0.98     6.81     0  02:02        0.98
  WS02004409           JUNCTION     0.53     0.69     6.46     0  02:02        0.69
  WS02004410           JUNCTION     0.55     0.71     6.43     0  02:03        0.71
  WS02004411           JUNCTION     0.56     0.71     6.39     0  02:03        0.71
  WS02004412           JUNCTION     0.58     0.72     6.36     0  02:03        0.72
  WS02004413           JUNCTION     0.74     0.87     6.34     0  02:03        0.87
  WS02004405           JUNCTION     0.83     0.98     6.83     0  02:01        0.98
  WS02006109           JUNCTION     0.80     1.00     7.62     0  01:57        1.00
  WS02006110           JUNCTION     0.79     0.94     7.53     0  01:58        0.94
  WS02006111           JUNCTION     0.23     0.29     7.00     0  01:58        0.29
  WS02006112           JUNCTION     0.89     1.14     7.02     0  01:58        1.10
  WS02006113           JUNCTION     0.37     0.47     7.36     0  01:58        0.47
  WS02006115           JUNCTION     0.61     0.79     6.92     0  02:02        0.78
  WS02006116           JUNCTION     0.69     0.86     6.90     0  02:01        0.86
  WS02006230           JUNCTION     0.78     1.05     7.80     0  01:58        1.05
  WS02006231           JUNCTION     0.52     0.71     7.84     0  01:58        0.71
  WS02006232           JUNCTION     0.66     0.84     7.88     0  01:58        0.84
  WS02006234           JUNCTION     0.58     0.77     7.93     0  01:58        0.77
  WS02006235           JUNCTION     0.61     0.80     7.96     0  02:00        0.80
  WS02006238           JUNCTION     0.64     0.82     7.97     0  02:00        0.82
  WS02006240           JUNCTION     0.53     0.74     8.03     0  03:10        0.74
  WS02006242           JUNCTION     0.59     0.81     8.08     0  03:11        0.81
  WS02006243           JUNCTION     0.46     0.70     8.12     0  03:11        0.70
  WS02006245           JUNCTION     0.44     0.67     8.15     0  03:11        0.67
  WS02006247           JUNCTION     0.45     0.67     8.17     0  03:11        0.67
  WS02006248           JUNCTION     0.39     0.61     8.20     0  03:11        0.61
  WS02006249           JUNCTION     0.42     0.62     8.22     0  03:11        0.62
  WS02006239           JUNCTION     0.59     0.79     8.00     0  03:10        0.79
  WS02006251           JUNCTION     0.41     0.65     8.32     0  03:10        0.65
  WS02006252           JUNCTION     0.34     0.59     8.83     0  03:12        0.59
  WS02006253           JUNCTION     0.44     0.67     8.32     0  03:10        0.67
  WS02006256           JUNCTION     1.09     1.21     8.14     0  02:00        1.21
  WS02004138           JUNCTION     0.16     0.17     7.42     0  00:24        0.17
  WS02004407           JUNCTION     0.24     0.31     6.62     0  02:02        0.31
  WS02006228           JUNCTION     0.81     1.06     7.71     0  01:58        1.05
  WS02006229           JUNCTION     0.79     1.05     7.74     0  01:57        1.05
  WS02006280           JUNCTION     0.07     0.16     8.43     0  01:50        0.16
  WS02006284           JUNCTION     0.37     0.50     8.90     0  01:50        0.50
  WS02006287           JUNCTION     0.11     0.23     9.19     0  01:50        0.23
  WSF200               JUNCTION     0.24     0.32     5.56     0  02:04        0.32
  HS02004901           JUNCTION     0.13     0.24    10.06     0  01:47        0.24
  HS02004881           JUNCTION     0.01     0.03     9.06     0  01:50        0.03
  HS02004876           JUNCTION     0.05     0.11     9.14     0  01:47        0.11
  HS02004870           JUNCTION     0.02     0.05     9.33     0  01:50        0.05
  HS02004862           JUNCTION     0.02     0.05     9.44     0  01:51        0.05
  HS02004856           JUNCTION     0.08     0.11     9.54     0  01:51        0.11
  HS02004852           JUNCTION     0.01     0.03     9.54     0  01:52        0.03
  HS02004848           JUNCTION     0.01     0.03     9.63     0  01:51        0.03
  HS02004842           JUNCTION     0.33     0.36     9.63     0  01:51        0.36
  HS02004837           JUNCTION     0.03     0.05     9.63     0  01:51        0.05
  HS02004830           JUNCTION     0.04     0.07     9.54     0  01:51        0.07
  HS02004824           JUNCTION     0.02     0.05     9.45     0  02:16        0.05
  HS02004817           JUNCTION     0.44     0.54     9.39     0  01:51        0.54
  HS02004807           JUNCTION     0.13     0.22     9.39     0  01:51        0.22
  HS02004802           JUNCTION     0.17     0.25     9.38     0  01:51        0.25
  HS02004799           JUNCTION     0.13     0.28     9.49     0  01:48        0.28
  HS02004792           JUNCTION     0.04     0.11     9.63     0  01:47        0.11
  HS02004788           JUNCTION     0.03     0.08     9.98     0  01:48        0.08
  HS02004785           JUNCTION     0.05     0.14    10.04     0  01:48        0.14
  HS02004777           JUNCTION     0.15     0.26    10.06     0  01:47        0.26
  HS02004770           JUNCTION     0.12     0.23    10.06     0  01:47        0.23
  HS02004480           JUNCTION     0.09     0.21     9.46     0  01:48        0.21
  HS02004479           JUNCTION     0.12     0.25     9.46     0  01:48        0.25
  HS02004478           JUNCTION     0.07     0.14     9.37     0  01:49        0.14
  YS02001745           JUNCTION     0.67     0.86     8.38     0  03:31        0.86
  YS02001748           JUNCTION     1.07     2.27     9.35     0  02:36        1.31
  YS02001751           JUNCTION     1.25     2.20     9.08     0  02:18        1.52
  YS02001754           JUNCTION     1.51     2.12     8.73     0  02:23        1.80
  YS02001762           JUNCTION     1.71     2.03     8.43     0  02:56        2.02
  YS02001765           JUNCTION     1.66     1.97     8.42     0  03:03        1.97
  YS02001767           JUNCTION     1.63     1.93     8.42     0  03:16        1.92
  YS02001770           JUNCTION     1.62     1.94     8.43     0  02:18        1.90
  YS02001774           JUNCTION     1.69     2.01     8.43     0  02:18        1.96
  YS02001779           JUNCTION     1.44     1.68     8.37     0  02:18        1.68
  YS02001882           JUNCTION     0.42     0.71     7.43     0  03:03        0.71
  YS02001884           JUNCTION     0.51     0.81     7.43     0  03:04        0.81
  YS02001759           JUNCTION     1.74     2.06     8.43     0  03:07        2.06
  YS02001887           JUNCTION     0.59     0.89     7.43     0  03:04        0.89
  YS02001890           JUNCTION     0.62     0.92     7.42     0  03:03        0.92
  YS02001898           JUNCTION     0.38     0.67     7.41     0  03:02        0.67
  YS02001901           JUNCTION     0.50     0.80     7.41     0  03:02        0.80
  YS02001904           JUNCTION     0.48     0.78     7.41     0  03:03        0.77
  YS02001907           JUNCTION     0.81     1.12     7.41     0  03:01        1.11
  YS02001910           JUNCTION     0.60     0.90     7.41     0  03:02        0.90
  YS02001915           JUNCTION     0.40     0.69     7.41     0  03:04        0.69
  YS02001918           JUNCTION     0.15     0.34     7.41     0  03:04        0.34
  YS02001619           JUNCTION     1.22     1.61     8.54     0  02:29        1.47
  YS02001629           JUNCTION     1.58     1.85     8.40     0  02:33        1.84
  YS02001641           JUNCTION     1.68     1.98     8.42     0  02:40        1.93
  YS02001644           JUNCTION     1.68     1.92     8.35     0  02:40        1.92
  YS02001652           JUNCTION     1.52     2.16     8.76     0  02:52        2.08
  YS02001655           JUNCTION     1.28     2.20     9.05     0  02:14        2.08
  YS02001920           JUNCTION     0.25     0.41     7.41     0  03:04        0.41
  YS02001923           JUNCTION     0.10     0.14     7.40     0  03:01        0.14
  YS02001926           JUNCTION     0.20     0.26     7.71     0  03:01        0.26
  YS02001929           JUNCTION     0.10     0.14     7.84     0  03:01        0.14
  YS02001658           JUNCTION     1.01     2.30     9.44     0  02:29        2.06
  YS02001661           JUNCTION     0.78     2.46     9.86     0  02:52        2.00
  YS02001664           JUNCTION     0.34     0.57     8.49     0  02:52        0.56
  YS02001622           JUNCTION     1.24     1.62     8.52     0  02:29        1.49
  YS02001633           JUNCTION     1.67     1.99     8.45     0  02:40        1.94
  YS02001649           JUNCTION     1.72     2.05     8.44     0  02:49        2.05
  YS02001757           JUNCTION     1.84     2.17     8.43     0  03:37        2.15
  YS02001895           JUNCTION     0.38     0.67     7.42     0  03:04        0.67
  YS02001625           JUNCTION     1.53     1.78     8.38     0  02:33        1.78
  YS02163301           JUNCTION     1.61     1.93     8.44     0  02:40        1.88
  YS02163601           JUNCTION     1.72     2.06     8.45     0  02:40        1.98
  YS02164001           JUNCTION     1.66     1.99     8.45     0  02:40        1.91
  YS02001647           JUNCTION     1.51     1.80     8.41     0  02:31        1.79
  YSB1154              JUNCTION     0.27     0.40     9.46     0  01:48        0.40
  YSB6556              JUNCTION     0.16     0.29     9.46     0  01:48        0.29
  YSB1174              JUNCTION     0.22     0.35     9.46     0  01:48        0.35
  YSB1171              JUNCTION     0.42     0.55     9.46     0  01:48        0.55
  YS02006553           JUNCTION     0.82     1.12     7.40     0  03:01        1.11
  YS02006561           JUNCTION     0.22     0.43     7.09     0  03:10        0.43
  YS02006556           JUNCTION     0.79     1.08     7.40     0  03:01        1.07
  YS02006558           JUNCTION     0.83     1.13     7.39     0  03:01        1.11
  YS02001783           JUNCTION     0.43     1.10     7.24     0  03:09        0.98
  YS02001784           JUNCTION     0.46     1.14     7.21     0  03:09        0.99
  YS02001786           JUNCTION     0.41     1.06     7.09     0  03:09        0.93
  YS02001788           JUNCTION     0.36     0.97     6.94     0  03:09        0.88
  YS02001790           JUNCTION     0.48     1.16     6.81     0  03:09        1.13
  YS02001791           JUNCTION     0.45     1.22     6.69     0  03:10        1.21
  YS02001793           JUNCTION     0.60     1.79     6.63     0  03:25        1.78
  WS02004139           JUNCTION     0.64     0.67     5.58     0  02:10        0.67
  WSC                  OUTFALL      0.33     0.38     1.05     0  02:10        0.38
  3                    OUTFALL      0.11     0.21     6.21     0  02:00        0.21
  4                    OUTFALL      0.01     0.12     7.12     0  03:11        0.12
  5                    OUTFALL      0.00     0.00     5.00     0  00:00        0.00
  JK-storage           STORAGE      2.37     5.80     6.60     0  03:10        5.80
  CC-storage           STORAGE      1.06     1.36     8.36     0  03:38        1.36
  XR-storage           STORAGE      6.56     7.72     5.72     0  02:56        7.72
  
  
  *******************
  Node Inflow Summary
  *******************
  
  -------------------------------------------------------------------------------------------------
                                  Maximum  Maximum                  Lateral       Total        Flow
                                  Lateral    Total  Time of Max      Inflow      Inflow     Balance
                                   Inflow   Inflow   Occurrence      Volume      Volume       Error
  Node                 Type           LPS      LPS  days hr:min    10^6 ltr    10^6 ltr     Percent
  -------------------------------------------------------------------------------------------------
  WS02001211           JUNCTION      7.35   293.22     0  03:42       0.212        8.07       0.185
  WS02001212           JUNCTION      0.00   293.88     0  03:42           0        8.06       0.102
  WS02001213           JUNCTION      0.00   294.48     0  03:41           0        8.05       0.159
  WS02003069           JUNCTION      0.32   881.26     0  02:08     0.00922        17.3       0.103
  WS02003072           JUNCTION      0.00   881.26     0  02:08           0        17.3       0.141
  WS02003073           JUNCTION      1.82   883.08     0  02:09      0.0524        17.3       0.153
  WS02003060           JUNCTION     16.53   880.96     0  02:07       0.476        17.3       0.095
  WS02003066           JUNCTION      0.00   573.49     0  02:04           0         8.8       0.042
  WS02003059           JUNCTION      0.00   295.56     0  03:41           0        8.04       0.309
  WS02003067           JUNCTION      0.00   573.40     0  02:04           0        8.81       0.092
  WS02004401           JUNCTION      0.00   575.83     0  02:01           0        8.99       0.185
  WS02004402           JUNCTION      0.00   574.93     0  02:01           0        8.98       0.179
  WS02004403           JUNCTION      0.00   575.29     0  02:01           0        8.96       0.167
  WS02004404           JUNCTION      0.16   574.88     0  02:01     0.00467        8.95       0.131
  WS02004406           JUNCTION      0.00   575.02     0  02:02           0        8.92       0.321
  WS02004409           JUNCTION      0.00   574.45     0  02:02           0        8.89       0.136
  WS02004410           JUNCTION      0.00   574.11     0  02:02           0        8.88       0.161
  WS02004411           JUNCTION      0.00   573.82     0  02:03           0        8.86       0.172
  WS02004412           JUNCTION      0.00   573.64     0  02:03           0        8.85       0.193
  WS02004413           JUNCTION      0.00   573.57     0  02:03           0        8.83       0.295
  WS02004405           JUNCTION      0.04   574.80     0  02:01      0.0011        8.94       0.196
  WS02006109           JUNCTION      1.23   566.24     0  01:58      0.0354        9.03       0.168
  WS02006110           JUNCTION      0.00   566.25     0  01:58           0        9.01       0.145
  WS02006111           JUNCTION      0.00   591.05     0  01:58           0        8.99       0.023
  WS02006112           JUNCTION      9.91   579.74     0  01:58       0.054        9.05       0.272
  WS02006113           JUNCTION      0.00   566.64     0  01:58           0           9       0.053
  WS02006115           JUNCTION      0.00   588.85     0  01:58           0        9.02       0.156
  WS02006116           JUNCTION      0.00   576.81     0  01:59           0        9.01       0.142
  WS02006230           JUNCTION     10.28   390.30     0  03:20       0.296        7.36       0.150
  WS02006231           JUNCTION      0.00   379.31     0  03:20           0        7.07      -0.016
  WS02006232           JUNCTION      0.00   379.28     0  03:20           0        7.07       0.114
  WS02006234           JUNCTION      0.00   379.14     0  03:20           0        7.08       0.001
  WS02006235           JUNCTION      0.00   379.11     0  03:20           0        7.11       0.080
  WS02006238           JUNCTION      0.00   290.27     0  03:21           0        4.79       0.041
  WS02006240           JUNCTION      0.00   290.01     0  03:21           0        4.76       0.033
  WS02006242           JUNCTION      0.00   289.95     0  03:21           0        4.75       0.045
  WS02006243           JUNCTION      0.00   289.07     0  03:20           0        4.74      -0.042
  WS02006245           JUNCTION      0.00   288.82     0  03:20           0        4.74       0.038
  WS02006247           JUNCTION      0.00   288.57     0  03:20           0        4.74       0.008
  WS02006248           JUNCTION      0.00   288.35     0  03:20           0        4.74      -0.014
  WS02006249           JUNCTION      0.00   423.82     0  03:10           0        4.92       0.035
  WS02006239           JUNCTION      0.00   290.20     0  03:21           0        4.77       0.035
  WS02006251           JUNCTION      0.08   424.29     0  03:10     0.00222        4.92       0.001
  WS02006252           JUNCTION      0.00   400.00     0  03:10           0        4.61       0.002
  WS02006253           JUNCTION      1.33    51.15     0  01:49     0.00698        0.31      -0.091
  WS02006256           JUNCTION      0.00   600.00     0  01:47           0        7.44       0.024
  WS02004138           JUNCTION      0.00   285.00     0  00:40           0        7.87       0.001
  WS02004407           JUNCTION      0.00   574.69     0  02:02           0        8.89       0.057
  WS02006228           JUNCTION      0.00   565.06     0  01:58           0           9       0.101
  WS02006229           JUNCTION      0.00   565.09     0  01:57           0        9.01       0.095
  WS02006280           JUNCTION      0.00   250.77     0  01:50           0        1.66       0.004
  WS02006284           JUNCTION      0.10   250.79     0  01:50     0.00275        1.66       0.062
  WS02006287           JUNCTION      0.00   250.70     0  01:50           0        1.65       0.043
  WSF200               JUNCTION      0.00   573.54     0  02:04           0        8.79       0.039
  HS02004901           JUNCTION     12.01    12.01     0  01:45      0.0649      0.0651       2.772
  HS02004881           JUNCTION      5.13    49.92     0  01:49      0.0283       0.303       0.116
  HS02004876           JUNCTION      9.09    44.88     0  01:50      0.0545       0.275       0.193
  HS02004870           JUNCTION      9.46    35.90     0  01:50      0.0537       0.221       0.048
  HS02004862           JUNCTION      8.62    26.77     0  01:51      0.0597       0.167       0.100
  HS02004856           JUNCTION      7.08    18.19     0  01:50      0.0404       0.109       1.336
  HS02004852           JUNCTION      0.00    11.37     0  01:51           0      0.0689       0.076
  HS02004848           JUNCTION     19.27    19.27     0  02:15       0.129       0.129       0.034
  HS02004842           JUNCTION      0.00     7.96     0  02:16           0      0.0736      21.453
  HS02004837           JUNCTION     22.22    28.76     0  01:50       0.276       0.337       0.233
  HS02004830           JUNCTION      0.15    28.90     0  01:51     0.00432       0.327       0.378
  HS02004824           JUNCTION     23.98    52.78     0  02:16       0.169       0.496       0.109
  HS02004817           JUNCTION      0.60    53.38     0  02:16      0.0173       0.512       3.361
  HS02004807           JUNCTION     17.56    68.44     0  02:16      0.0987       0.595       0.732
  HS02004802           JUNCTION      0.00    68.45     0  02:16           0       0.592       0.673
  HS02004799           JUNCTION     13.93   155.61     0  01:47        0.08       0.916       0.287
  HS02004792           JUNCTION     59.81   141.74     0  01:47       0.341       0.837       0.048
  HS02004788           JUNCTION     20.81    82.39     0  01:48       0.159       0.497       0.077
  HS02004785           JUNCTION      0.15    61.69     0  01:47     0.00432       0.339       0.142
  HS02004777           JUNCTION      0.03    61.69     0  01:46    0.000864        0.34       1.550
  HS02004770           JUNCTION     50.05    61.90     0  01:46       0.278       0.341       0.913
  HS02004480           JUNCTION      0.00   184.54     0  01:48           0        1.08       0.104
  HS02004479           JUNCTION      0.00    29.01     0  01:50           0       0.176       0.417
  HS02004478           JUNCTION      0.00   250.67     0  01:49           0        1.66       0.021
  YS02001745           JUNCTION    196.14   392.60     0  02:36        1.99        2.01       0.576
  YS02001748           JUNCTION      0.04   558.79     0  02:36      0.0013           2       1.148
  YS02001751           JUNCTION      0.01   439.87     0  02:18    0.000317        1.97       1.191
  YS02001754           JUNCTION      0.26   228.49     0  02:31     0.00749        1.95       1.257
  YS02001762           JUNCTION      0.00   235.28     0  02:54           0        1.97       1.079
  YS02001765           JUNCTION      0.00   235.16     0  02:54           0        1.97       1.241
  YS02001767           JUNCTION      0.54   235.26     0  02:54      0.0154        1.99       1.813
  YS02001770           JUNCTION    237.12   237.12     0  03:00        2.25        2.26       1.404
  YS02001774           JUNCTION      0.00   100.72     0  03:09           0       0.272      10.208
  YS02001779           JUNCTION      0.01   100.80     0  03:09    0.000144       0.236       6.719
  YS02001882           JUNCTION      0.00    11.89     0  02:16           0      0.0161      14.380
  YS02001884           JUNCTION      0.00    16.81     0  02:22           0      0.0474      13.369
  YS02001759           JUNCTION    224.87   457.52     0  02:54        2.07           4       0.566
  YS02001887           JUNCTION    272.70   273.29     0  03:02         2.4        2.43       0.328
  YS02001890           JUNCTION      0.00   270.92     0  03:02           0        2.38       0.364
  YS02001898           JUNCTION      0.00   269.37     0  02:42           0        2.37       0.110
  YS02001901           JUNCTION      0.00   270.81     0  03:07           0        2.37       0.272
  YS02001904           JUNCTION      0.00   271.31     0  03:07           0        2.37       0.247
  YS02001907           JUNCTION      0.00   552.91     0  03:09           0        5.24       0.445
  YS02001910           JUNCTION      0.00   275.22     0  03:07           0        2.89       0.385
  YS02001915           JUNCTION    170.88   266.94     0  03:08        1.68        2.89       0.189
  YS02001918           JUNCTION      0.00    98.83     0  03:08           0        1.22       0.137
  YS02001619           JUNCTION    167.73   167.73     0  03:01        1.66        1.66       0.709
  YS02001629           JUNCTION      0.00   219.50     0  02:20           0        1.58       1.780
  YS02001641           JUNCTION      0.00   351.98     0  02:59           0        3.46       0.612
  YS02001644           JUNCTION    187.26   723.66     0  03:12        1.92        6.55       0.399
  YS02001652           JUNCTION      0.00   282.88     0  02:29           0        1.73       1.356
  YS02001655           JUNCTION      0.15   441.54     0  02:14     0.00443        1.76       1.337
  YS02001920           JUNCTION      2.87    94.35     0  03:01      0.0827        1.22       0.221
  YS02001923           JUNCTION      0.04    91.49     0  03:01     0.00109        1.14       0.041
  YS02001926           JUNCTION      0.05    91.60     0  03:01      0.0015        1.14       0.273
  YS02001929           JUNCTION     91.59    91.59     0  03:01        1.14        1.14       0.040
  YS02001658           JUNCTION      0.00   620.64     0  02:29           0        1.82       1.202
  YS02001661           JUNCTION      0.00   596.30     0  02:50           0        2.59       0.032
  YS02001664           JUNCTION    199.96   377.36     0  02:49        1.78        2.56       0.282
  YS02001622           JUNCTION      0.00   175.45     0  02:21           0        1.65       1.920
  YS02001633           JUNCTION    191.11   351.68     0  02:59        1.98        3.52       0.918
  YS02001649           JUNCTION      0.00   719.42     0  02:48           0        4.45       0.837
  YS02001757           JUNCTION      0.00  1331.02     0  02:48           0        9.08       1.025
  YS02001895           JUNCTION      0.00   268.83     0  02:58           0        2.38       0.196
  YS02001625           JUNCTION      0.00   219.62     0  02:20           0        1.62       2.449
  YS02163301           JUNCTION      0.00   188.23     0  02:28           0        1.57       1.534
  YS02163601           JUNCTION      0.11   351.88     0  02:59     0.00317        3.48       0.870
  YS02164001           JUNCTION      0.00   351.84     0  02:59           0        3.46       0.585
  YS02001647           JUNCTION      0.00   521.26     0  02:48           0        3.44       0.824
  YSB1154              JUNCTION     16.17    16.17     0  01:48      0.0971      0.0979       1.498
  YSB6556              JUNCTION      0.00    16.24     0  01:49           0      0.0986       1.281
  YSB1174              JUNCTION     13.15    13.15     0  01:45      0.0704      0.0709       1.842
  YSB1171              JUNCTION      0.00    29.32     0  01:48           0       0.175       3.751
  YS02006553           JUNCTION      0.00   552.93     0  03:09           0        5.23       0.284
  YS02006561           JUNCTION      0.00   766.33     0  03:09           0        7.38       0.008
  YS02006556           JUNCTION      0.00   553.48     0  03:09           0        5.24       0.208
  YS02006558           JUNCTION    242.14   765.53     0  03:09         2.2        7.41       0.069
  YS02001783           JUNCTION      0.00   774.46     0  03:09           0        7.38       0.028
  YS02001784           JUNCTION      1.06   767.31     0  03:09      0.0305        7.41       0.044
  YS02001786           JUNCTION      0.06   763.99     0  03:09     0.00162        7.41       0.037
  YS02001788           JUNCTION      0.07   761.26     0  02:59     0.00204        7.41       0.021
  YS02001790           JUNCTION      0.15   761.63     0  03:00     0.00446        7.41       0.032
  YS02001791           JUNCTION      0.00   787.60     0  03:00           0        7.41       0.013
  YS02001793           JUNCTION      0.00   775.37     0  03:00           0         7.4       0.002
  WS02004139           JUNCTION      0.32   285.32     0  00:13     0.00924        7.87       0.183
  WSC                  OUTFALL       0.00   883.08     0  02:10           0        17.3       0.000
  3                    OUTFALL       0.00   515.16     0  02:00           0        5.08       0.000
  4                    OUTFALL       0.00   141.41     0  03:11           0       0.181       0.000
  5                    OUTFALL       0.00     0.00     0  00:00           0           0       0.000 ltr
  JK-storage           STORAGE       0.00   765.85     0  03:00           0        7.56      -5.204
  CC-storage           STORAGE       0.00  1330.89     0  02:48           0        8.44       0.775
  XR-storage           STORAGE     519.52   519.52     0  03:01        9.12        9.72      -0.004
  
  
  **********************
  Node Surcharge Summary
  **********************
  
  Surcharging occurs when water rises above the top of the highest conduit.
  ---------------------------------------------------------------------
                                               Max. Height   Min. Depth
                                   Hours       Above Crown    Below Rim
  Node                 Type      Surcharged         Meters       Meters
  ---------------------------------------------------------------------
  WS02006109           JUNCTION        1.87          0.181        1.639
  WS02006110           JUNCTION        1.17          0.033        1.817
  WS02006112           JUNCTION        1.47          0.136        1.544
  WS02006231           JUNCTION        0.18          0.005        1.525
  WS02006232           JUNCTION        1.78          0.140        1.340
  WS02006234           JUNCTION        1.51          0.050        1.190
  WS02006235           JUNCTION        1.65          0.086        1.204
  WS02006238           JUNCTION        1.69          0.101        1.329
  WS02006240           JUNCTION        0.77          0.029        1.361
  WS02006242           JUNCTION        1.37          0.076        0.744
  WS02006239           JUNCTION        1.36          0.048        1.242
  WS02006252           JUNCTION        0.42          0.193        0.907
  WS02006228           JUNCTION        1.86          0.226        1.974
  YS02001748           JUNCTION        5.27          1.190        0.000
  YS02001751           JUNCTION        5.57          1.200        0.000
  YS02001754           JUNCTION        5.85          1.074        0.076
  YS02001762           JUNCTION        6.11          1.026        0.124
  YS02001765           JUNCTION        6.08          0.973        0.127
  YS02001767           JUNCTION        6.06          0.930        0.100
  YS02001770           JUNCTION        5.99          0.910        0.010
  YS02001774           JUNCTION        6.10          1.010        0.040
  YS02001779           JUNCTION        5.80          0.680        0.000
  YS02001759           JUNCTION        6.13          1.065        0.145
  YS02001907           JUNCTION        1.23          0.107        0.843
  YS02001619           JUNCTION        5.54          0.610        0.000
  YS02001629           JUNCTION        5.56          0.470        0.000
  YS02001641           JUNCTION        6.09          0.979        0.121
  YS02001644           JUNCTION        6.10          0.920        0.000
  YS02001652           JUNCTION        5.87          1.130        0.000
  YS02001655           JUNCTION        5.58          1.200        0.000
  YS02001658           JUNCTION        5.30          1.300        0.000
  YS02001661           JUNCTION        0.18          1.390        0.000
  YS02001622           JUNCTION        5.62          0.620        0.000
  YS02001633           JUNCTION        6.07          0.975        0.085
  YS02001649           JUNCTION        6.11          1.050        0.000
  YS02001757           JUNCTION        6.20          1.167        0.043
  YS02001625           JUNCTION        5.88          0.780        0.000
  YS02163301           JUNCTION        6.05          0.925        0.105
  YS02163601           JUNCTION        6.12          1.056        0.024
  YS02164001           JUNCTION        6.08          0.991        0.109
  YS02001647           JUNCTION        5.88          0.800        0.100
  YS02006553           JUNCTION        1.30          0.117        1.073
  YS02006556           JUNCTION        0.21          0.044        1.306
  YS02006558           JUNCTION        0.08          0.027        1.373
  YS02001783           JUNCTION        0.24          0.298        1.302
  YS02001784           JUNCTION        0.33          0.340        1.150
  YS02001786           JUNCTION        0.24          0.262        1.168
  YS02001788           JUNCTION        0.18          0.166        1.314
  YS02001790           JUNCTION        1.64          0.362        0.795
  YS02001791           JUNCTION        1.77          0.422        1.498
  YS02001793           JUNCTION        2.01          0.794        1.806
  
  
  *********************
  Node Flooding Summary
  *********************
  
  Flooding refers to all water that overflows a node, whether it ponds or not.
  --------------------------------------------------------------------------
                                                             Total   Maximum
                                 Maximum   Time of Max       Flood    Ponded
                        Hours       Rate    Occurrence      Volume     Depth
  Node                 Flooded       LPS   days hr:min    10^6 ltr    Meters
  --------------------------------------------------------------------------
  YS02001748              0.01    139.40      0  02:36       0.000     0.000
  YS02001751              0.01    180.69      0  02:20       0.000     0.000
  YS02001779              2.00    100.79      0  03:09       0.210     0.000
  YS02001619              0.01     21.18      0  02:37       0.000     0.000
  YS02001629              0.01     33.76      0  02:35       0.001     0.000
  YS02001644              4.35    723.65      0  03:12       4.279     0.000
  YS02001652              0.01     17.67      0  02:54       0.000     0.000
  YS02001655              0.01    185.38      0  02:22       0.001     0.000
  YS02001658              0.01    366.04      0  02:31       0.001     0.000
  YS02001661              0.01    168.77      0  02:54       0.001     0.000
  YS02001622              0.01     33.08      0  02:33       0.000     0.000
  YS02001649              0.06     46.09      0  02:54       0.003     0.000
  YS02001625              0.30     29.30      0  02:37       0.004     0.000
  JK-storage              1.25    251.81      0  03:30       0.489     0.000
  XR-storage              2.89    239.78      0  07:57       0.933     0.000
  
  
  **********************
  Storage Volume Summary
  **********************
  
  --------------------------------------------------------------------------------------------------
                         Average     Avg  Evap Exfil       Maximum     Max    Time of Max    Maximum
                          Volume    Pcnt  Pcnt  Pcnt        Volume    Pcnt     Occurrence    Outflow
  Storage Unit           1000 m3    Full  Loss  Loss       1000 m3    Full    days hr:min        LPS
  --------------------------------------------------------------------------------------------------
  JK-storage               0.119      41     0     0         0.291     100       0  03:10     600.00
  CC-storage               2.947      19     0     0         3.790      24       0  03:38     400.00
  XR-storage               0.787      85     0     0         0.926     100       0  02:56     285.00
  
  
  ***********************
  Outfall Loading Summary
  ***********************
  
  -----------------------------------------------------------
                         Flow       Avg       Max       Total
                         Freq      Flow      Flow      Volume
  Outfall Node           Pcnt       LPS       LPS    10^6 ltr
  -----------------------------------------------------------
  WSC                  100.00    673.18    883.08      17.254
  3                     92.39    252.28    515.16       5.083
  4                     28.98     31.44    141.41       0.181
  5                      0.00      0.00      0.00       0.000
  -----------------------------------------------------------
  System                55.34    956.90   1490.32      22.518
  
  
  ********************
  Link Flow Summary
  ********************
  
  -----------------------------------------------------------------------------
                                 Maximum  Time of Max   Maximum    Max/    Max/
                                  |Flow|   Occurrence   |Veloc|    Full    Full
  Link                 Type          LPS  days hr:min     m/sec    Flow   Depth
  -----------------------------------------------------------------------------
  WS02003066WSF200     CONDUIT    573.54     0  02:04      2.74    0.10    0.24
  WS02006287WS02006284 CONDUIT    250.69     0  01:50      1.73    0.12    0.24
  WS02006284WS02006280 CONDUIT    250.77     0  01:50      1.97    0.11    0.22
  WS02006280WS02006229 CONDUIT    250.77     0  01:50      3.17    0.05    0.16
  WS02006229WS02006228 CONDUIT    565.06     0  01:58      1.12    1.87    1.00
  WS02006256WS02006235 CONDUIT    152.73     0  01:35      2.19    1.62    1.00
  WS02006253WS02006251 CONDUIT     50.56     0  01:49      0.51    0.15    0.94
  WS02006252WS02006251 CONDUIT    400.27     0  03:18      3.19    1.47    1.00
  WS02006251WS02006249 CONDUIT    423.82     0  03:10      1.16    1.22    0.90
  WS02006249WS02006248 CONDUIT    288.35     0  03:20      1.07    1.58    0.86
  WS02006248WS02006247 CONDUIT    288.57     0  03:20      1.03    0.63    0.91
  WS02006247WS02006245 CONDUIT    288.82     0  03:20      0.99    2.29    0.95
  WS02006245WS02006243 CONDUIT    289.07     0  03:20      1.04    0.86    0.97
  WS02006243WS02006242 CONDUIT    289.95     0  03:21      0.84    0.62    1.00
  WS02006242WS02006240 CONDUIT    290.01     0  03:21      0.75    1.15    1.00
  WS02006240WS02006239 CONDUIT    290.20     0  03:21      0.75    0.91    1.00
  WS02006239WS02006238 CONDUIT    290.27     0  03:21      0.75    0.93    1.00
  WS02006238WS02006235 CONDUIT    290.30     0  03:21      0.75    0.65    1.00
  WS02006235WS02006234 CONDUIT    379.14     0  03:20      0.99    4.00    1.00
  WS02006234WS02006232 CONDUIT    379.28     0  03:20      0.99    0.77    1.00
  WS02006232WS02006231 CONDUIT    379.31     0  03:20      1.01    0.79    1.00
  WS02006231WS02006230 CONDUIT    380.02     0  03:20      1.29    5.76    0.98
  WS02006230WS02006229 CONDUIT    391.58     0  03:20      1.02    8.71    1.00
  WS02006228WS02006109 CONDUIT    565.01     0  01:58      1.12    2.47    1.00
  WS02006116WS02004401 CONDUIT    575.83     0  02:01      0.82    0.79    0.87
  WS02006115WS02006116 CONDUIT    576.81     0  01:59      0.88    0.74    0.79
  WS02006113WS02006111 CONDUIT    591.05     0  01:58      2.51    0.71    0.48
  WS02006112WS02006115 CONDUIT    588.85     0  01:58      0.80    0.35    0.89
  WS02006111WS02006112 CONDUIT    571.14     0  01:58      1.57    0.27    0.68
  WS02006110WS02006113 CONDUIT    566.64     0  01:58      1.33    0.52    0.79
  WS02006109WS02006110 CONDUIT    566.25     0  01:58      1.13    1.09    1.00
  WS02004411WS02004412 CONDUIT    573.64     0  02:03      0.96    0.81    0.71
  WS02004401WS02004402 CONDUIT    574.93     0  02:01      0.85    0.69    0.89
  WS02004413WS02003067 CONDUIT    573.40     0  02:04      1.15    0.25    0.61
  WS02004412WS02004413 CONDUIT    573.57     0  02:03      0.86    0.38    0.80
  WS02004410WS02004411 CONDUIT    573.82     0  02:03      0.96    0.78    0.71
  WS02004409WS02004410 CONDUIT    574.11     0  02:02      0.98    0.74    0.70
  WS02004407WS02004409 CONDUIT    574.45     0  02:02      1.48    0.20    0.50
  WS02004406WS02004407 CONDUIT    574.69     0  02:02      1.08    0.26    0.64
  WS02004405WS02004406 CONDUIT    575.02     0  02:02      0.79    1.13    0.98
  WS02004404WS02004405 CONDUIT    574.76     0  02:01      0.97    5.63    0.98
  WS02004403WS02004404 CONDUIT    574.72     0  02:01      0.84    0.42    0.95
  WS02004402WS02004403 CONDUIT    575.29     0  02:01      0.87    0.83    0.91
  WS02004139WS02001211 CONDUIT    285.87     0  03:42      0.57    0.36    0.54
  WS02004138WS02004139 CONDUIT    285.00     0  00:13      2.11    0.06    0.39
  WS02003067WS02003066 CONDUIT    573.49     0  02:04      1.25    0.18    0.43
  WS02001213WS02003059 CONDUIT    295.56     0  03:41      0.59    0.49    0.73
  WS02001212WS02001213 CONDUIT    294.48     0  03:41      1.19    0.45    0.42
  WS02001211WS02001212 CONDUIT    293.88     0  03:42      0.67    0.22    0.59
  WS02003072WS02003073 CONDUIT    881.26     0  02:09      1.69    1.90    0.47
  WS02003069WS02003072 CONDUIT    881.26     0  02:08      1.59    0.42    0.49
  WS02003060WS02003069 CONDUIT    880.94     0  02:08      1.84    0.34    0.44
  WS02003059WS02003060 CONDUIT    297.06     0  03:41      0.82    0.19    0.63
  HS02004901HS02004770 CONDUIT     11.86     0  01:47      0.05    0.04    0.34
  HS02004876HS02004881 CONDUIT     44.96     0  01:50      0.68    0.48    0.09
  HS02004870HS02004876 CONDUIT     35.89     0  01:50      0.47    0.02    0.11
  HS02004842HS02004848 CONDUIT      7.96     0  02:16      0.04    0.00    0.28
  HS02004837HS02004842 CONDUIT      8.06     0  02:20      0.42    0.00    0.30
  HS02004830HS02004837 CONDUIT     28.75     0  01:51      0.48    0.03    0.09
  HS02004824HS02004830 CONDUIT     28.90     0  01:52      0.51    0.04    0.08
  HS02004817HS02004824 CONDUIT     52.78     0  02:16      0.18    0.02    0.42
  HS02004770HS02004777 CONDUIT     61.66     0  01:46      0.25    0.11    0.35
  HS02004799HS02004480 CONDUIT    155.54     0  01:47      0.65    0.20    0.34
  HS02004792HS02004799 CONDUIT    141.71     0  01:47      0.74    0.09    0.27
  HS02004788HS02004792 CONDUIT     82.36     0  01:48      0.88    0.05    0.13
  HS02004785HS02004788 CONDUIT     61.65     0  01:48      0.55    0.46    0.16
  HS02004777HS02004785 CONDUIT     61.54     0  01:47      0.30    0.08    0.29
  HS02004480HS02004478 CONDUIT    184.33     0  01:49      1.04    0.78    0.25
  HS02004479HS02004480 CONDUIT     29.24     0  01:51      0.28    0.03    0.33
  HS02004862HS02004870 CONDUIT     26.75     0  01:51      0.52    0.03    0.07
  HS02004848HS02004852 CONDUIT     11.37     0  01:51      0.35    0.01    0.05
  HS02004856HS02004862 CONDUIT     18.17     0  01:51      0.38    0.02    0.07
  HS02004852HS02004856 CONDUIT     11.35     0  01:52      0.16    0.01    0.10
  HS02004802HS02004478 CONDUIT     68.53     0  02:17      0.36    0.06    0.28
  HS02004478WS02006287 CONDUIT    250.70     0  01:50      1.43    0.07    0.19
  HS02004817HS02004807 CONDUIT     53.46     0  02:17      0.14    0.03    0.54
  HS02004807HS02004802 CONDUIT     68.45     0  02:16      0.30    0.13    0.33
  YS02001759YS02001757 CONDUIT    457.64     0  02:54      0.58    0.33    1.00
  YS02001762YS02001759 CONDUIT    235.50     0  02:54      0.30    0.27    1.00
  YS02001765YS02001762 CONDUIT    235.28     0  02:54      0.30    0.22    1.00
  YS02001770YS02001767 CONDUIT    234.72     0  02:54      0.38    0.93    1.00
  YS02001774YS02001770 CONDUIT    100.72     0  03:09      0.24    0.06    1.00
  YS02001779YS02001774 CONDUIT    100.79     0  03:09      0.13    0.05    1.00
  YS02001649YS02001757 CONDUIT    719.53     0  02:48      0.92    0.44    1.00
  YS02001767YS02001765 CONDUIT    235.16     0  02:54      0.35    0.30    1.00
  YS02006561YS02001783 CONDUIT    774.46     0  03:09      2.17    0.40    0.77
  YS02001783YS02001784 CONDUIT    766.25     0  03:09      1.64    1.06    1.00
  YS02001784YS02001785 CONDUIT    763.93     0  03:09      1.78    1.78    1.00
  YS02001788YS02001790 CONDUIT    761.48     0  03:00      2.32    0.56    1.00
  YS02001790YS02001791 CONDUIT    787.60     0  03:00      2.86    0.86    1.00
  YS02001791YS02001793 CONDUIT    775.37     0  03:00      5.74    0.33    1.00
  YS02001910YS02001907 CONDUIT    279.54     0  03:08      0.49    0.16    0.95
  YS02001786YS02001788 CONDUIT    761.19     0  02:59      2.23    1.47    1.00
  YS02001915YS02001910 CONDUIT    275.22     0  03:07      0.56    0.14    0.79
  YS02001918YS02001915 CONDUIT    110.33     0  03:08      0.44    0.06    0.51
  YS02001923YS02001920 CONDUIT     91.48     0  03:01      0.64    0.04    0.27
  YS02001926YS02001923 CONDUIT     91.45     0  03:01      0.74    0.13    0.21
  YS02001929YS02001926 CONDUIT     91.54     0  03:01      0.81    0.04    0.20
  YS02001920YS02001918 CONDUIT     98.83     0  03:08      0.63    0.10    0.37
  YS02001629YS02163301 CONDUIT    188.23     0  02:28      0.24    0.23    1.00
  YS02001619YS02001622 CONDUIT    175.45     0  02:21      0.65    0.26    1.00
  YS02001622YS02001625 CONDUIT    219.62     0  02:20      0.32    0.12    1.00
  YS02001625YS02001629 CONDUIT    219.50     0  02:20      0.28    0.10    1.00
  YS02163301YS02001633 CONDUIT    188.44     0  02:28      0.24    0.18    1.00
  YS02163601YS02164001 CONDUIT    351.84     0  02:59      0.45    0.31    1.00
  YS02164001YS02001641 CONDUIT    351.98     0  02:59      0.45    0.48    1.00
  YS02001641YS02001644 CONDUIT    351.88     0  02:59      0.45    1.14    1.00
  YS02001647YS02001649 CONDUIT    521.48     0  02:48      0.66    0.28    1.00
  YS02006553YS02006556 CONDUIT    553.48     0  03:09      0.71    0.47    1.00
  YS02006556YS02006558 CONDUIT    554.56     0  03:09      0.71    0.44    1.00
  YSB6556YSB1171       CONDUIT     16.50     0  01:50      0.07    0.02    0.60
  YS02001907YS02006553 CONDUIT    552.93     0  03:09      0.61    0.65    1.00
  YS02006558YS02006561 CONDUIT    766.33     0  03:09      3.28    1.69    0.84
  YS02001633YS02163601 CONDUIT    351.77     0  02:59      0.45    0.37    1.00
  YS02001644YS02001647 CONDUIT    521.26     0  02:48      0.66    0.31    1.00
  YS02001745YS02001748 CONDUIT    558.75     0  02:36      1.51    0.22    0.93
  YS02001748YS02001751 CONDUIT    439.86     0  02:18      1.12    0.22    1.00
  YS02001751YS02001754 CONDUIT    228.23     0  02:31      0.97    0.11    1.00
  YS02001754YS02001757 CONDUIT    227.99     0  02:31      0.33    0.09    1.00
  YS02001882YS02001884 CONDUIT     13.26     0  03:29      0.12    0.02    0.73
  YS02001884YS02001887 CONDUIT     17.66     0  03:27      0.09    0.02    0.83
  YS02001890YS02001895 CONDUIT    268.83     0  02:58      0.43    0.13    0.79
  YS02001895YS02001898 CONDUIT    269.37     0  02:42      0.55    0.47    0.66
  YS02001898YS02001901 CONDUIT    270.81     0  03:07      0.48    0.17    0.74
  YS02001901YS02001904 CONDUIT    271.31     0  03:07      0.44    0.42    0.79
  YS02001904YS02001907 CONDUIT    278.61     0  03:09      0.39    0.10    0.89
  YS02001887YS02001890 CONDUIT    270.92     0  03:02      0.39    0.46    0.88
  YS02001652YS02001649 CONDUIT    282.88     0  02:29      0.58    0.14    1.00
  YS02001655YS02001652 CONDUIT    282.88     0  02:29      1.05    0.14    1.00
  YS02001658YS02001655 CONDUIT    441.39     0  02:14      1.29    0.19    1.00
  YS02001661YS02001658 CONDUIT    620.64     0  02:29      1.59    0.24    1.00
  YS02001664YS02001661 CONDUIT    596.30     0  02:50      1.47    0.19    0.70
  YSB1154YSB6556       CONDUIT     16.24     0  01:49      0.17    0.03    0.49
  YSB1174YSB1171       CONDUIT     13.24     0  01:45      0.06    0.02    0.61
  YSB1171HS02004479    CONDUIT     29.01     0  01:50      0.54    0.02    0.47
  HS02004881HS02006253 CONDUIT     49.92     0  01:50      1.76    0.01    0.25
  YS02001793JiankangQianchi CONDUIT    765.85     0  03:00     16.40    0.06    1.00
  YS02001757CaochengTiaoxuchi CONDUIT   1330.89     0  02:48      2.16    0.58    1.00
  WSF200WS02003060     CONDUIT    573.68     0  02:04      1.69    0.13    0.34
  1                    CONDUIT    883.08     0  02:10      3.22    0.31    0.38
  2                    CONDUIT    141.41     0  03:11      5.33    0.34    0.40
  3                    CONDUIT    515.16     0  02:00      9.83    0.82    0.69
  4                    CONDUIT      0.00     0  00:00      0.00    0.00    0.00
  CC-Pump-1            PUMP       200.00     0  01:43              1.00
  CC-Pump-2            PUMP       200.00     0  03:10              1.00
  JK-Pump-1            PUMP       300.00     0  00:10              1.00
  JK-Pump-2            PUMP       300.00     0  01:47              1.00
  XR-Pump-1            PUMP        95.00     0  00:10              1.00
  XR-Pump-2            PUMP        95.00     0  00:10              1.00
  XR-Pump-3            PUMP        95.00     0  00:50              1.00
  XR-Pump-4            PUMP        95.00     0  00:10              1.00
  
  
  ***************************
  Flow Classification Summary
  ***************************
  
  -------------------------------------------------------------------------------------
                      Adjusted    ---------- Fraction of Time in Flow Class ---------- 
                       /Actual         Up    Down  Sub   Sup   Up    Down  Norm  Inlet 
  Conduit               Length    Dry  Dry   Dry   Crit  Crit  Crit  Crit  Ltd   Ctrl  
  -------------------------------------------------------------------------------------
  WS02003066WSF200        1.00   0.04  0.00  0.00  0.00  0.96  0.00  0.00  0.61  0.00
  WS02006287WS02006284    1.00   0.03  0.01  0.00  0.56  0.40  0.00  0.00  0.71  0.00
  WS02006284WS02006280    1.00   0.04  0.00  0.00  0.00  0.00  0.00  0.96  0.00  0.00
  WS02006280WS02006229    1.00   0.04  0.00  0.00  0.00  0.00  0.00  0.96  0.00  0.00
  WS02006229WS02006228    1.00   0.00  0.00  0.00  1.00  0.00  0.00  0.00  0.00  0.00
  WS02006256WS02006235    1.00   0.00  0.00  0.00  1.00  0.00  0.00  0.00  0.00  0.00
  WS02006253WS02006251    1.00   0.02  0.01  0.00  0.96  0.00  0.00  0.00  0.00  0.00
  WS02006252WS02006251    1.00   0.06  0.00  0.00  0.00  0.00  0.94  0.00  0.00  0.00
  WS02006251WS02006249    1.00   0.00  0.00  0.00  1.00  0.00  0.00  0.00  0.20  0.00
  WS02006249WS02006248    1.00   0.00  0.01  0.00  0.93  0.00  0.06  0.00  0.00  0.00
  WS02006248WS02006247    1.00   0.01  0.00  0.00  0.98  0.00  0.00  0.01  0.10  0.00
  WS02006247WS02006245    1.00   0.01  0.00  0.00  0.99  0.00  0.00  0.00  0.00  0.00
  WS02006245WS02006243    1.00   0.01  0.00  0.00  0.97  0.00  0.00  0.02  0.01  0.00
  WS02006243WS02006242    1.00   0.00  0.00  0.00  0.99  0.00  0.00  0.00  0.16  0.00
  WS02006242WS02006240    1.00   0.00  0.00  0.00  1.00  0.00  0.00  0.00  0.00  0.00
  WS02006240WS02006239    1.00   0.00  0.00  0.00  0.98  0.00  0.00  0.02  0.01  0.00
  WS02006239WS02006238    1.00   0.00  0.00  0.00  1.00  0.00  0.00  0.00  0.00  0.00
  WS02006238WS02006235    1.00   0.00  0.00  0.00  1.00  0.00  0.00  0.00  0.00  0.00
  WS02006235WS02006234    1.00   0.00  0.00  0.00  0.98  0.00  0.02  0.00  0.00  0.00
  WS02006234WS02006232    1.00   0.00  0.00  0.00  1.00  0.00  0.00  0.00  0.00  0.00
  WS02006232WS02006231    1.00   0.00  0.00  0.00  1.00  0.00  0.00  0.00  0.00  0.00
  WS02006231WS02006230    1.00   0.00  0.00  0.00  0.52  0.00  0.48  0.00  0.00  0.00
  WS02006230WS02006229    1.00   0.00  0.00  0.00  0.99  0.00  0.00  0.01  0.01  0.00
  WS02006228WS02006109    1.00   0.00  0.00  0.00  1.00  0.00  0.00  0.00  0.00  0.00
  WS02006116WS02004401    1.00   0.02  0.00  0.00  0.98  0.00  0.00  0.00  0.00  0.00
  WS02006115WS02006116    1.00   0.02  0.00  0.00  0.98  0.00  0.00  0.00  0.00  0.00
  WS02006113WS02006111    1.00   0.01  0.00  0.00  0.00  0.99  0.00  0.00  0.12  0.00
  WS02006112WS02006115    1.00   0.01  0.01  0.00  0.98  0.00  0.00  0.00  0.00  0.00
  WS02006111WS02006112    1.00   0.01  0.00  0.00  0.98  0.00  0.00  0.00  0.97  0.00
  WS02006110WS02006113    1.00   0.00  0.01  0.00  0.99  0.00  0.00  0.00  0.00  0.00
  WS02006109WS02006110    1.00   0.00  0.00  0.00  0.99  0.00  0.01  0.00  0.00  0.00
  WS02004411WS02004412    1.00   0.03  0.00  0.00  0.97  0.00  0.00  0.00  0.00  0.00
  WS02004401WS02004402    1.00   0.02  0.00  0.00  0.98  0.00  0.00  0.00  0.00  0.00
  WS02004413WS02003067    1.00   0.03  0.01  0.00  0.00  0.00  0.96  0.00  0.00  0.00
  WS02004412WS02004413    1.00   0.03  0.00  0.00  0.97  0.00  0.00  0.00  0.02  0.00
  WS02004410WS02004411    1.00   0.03  0.00  0.00  0.97  0.00  0.00  0.00  0.02  0.00
  WS02004409WS02004410    1.00   0.03  0.00  0.00  0.97  0.00  0.00  0.00  0.03  0.00
  WS02004407WS02004409    1.00   0.03  0.00  0.00  0.97  0.00  0.00  0.00  0.92  0.00
  WS02004406WS02004407    1.00   0.00  0.03  0.00  0.97  0.00  0.00  0.00  0.00  0.00
  WS02004405WS02004406    1.00   0.00  0.00  0.00  1.00  0.00  0.00  0.00  0.01  0.00
  WS02004404WS02004405    1.00   0.00  0.00  0.00  1.00  0.00  0.00  0.00  0.00  0.00
  WS02004403WS02004404    1.00   0.00  0.02  0.00  0.98  0.00  0.00  0.00  0.00  0.00
  WS02004402WS02004403    1.00   0.02  0.00  0.00  0.98  0.00  0.00  0.00  0.00  0.00
  WS02004139WS02001211    1.00   0.00  0.00  0.00  1.00  0.00  0.00  0.00  0.00  0.00
  WS02004138WS02004139    1.00   0.00  0.00  0.00  0.99  0.00  0.00  0.00  0.99  0.00
  WS02003067WS02003066    1.00   0.04  0.00  0.00  0.96  0.00  0.00  0.00  0.00  0.00
  WS02001213WS02003059    1.00   0.00  0.00  0.00  1.00  0.00  0.00  0.00  0.00  0.00
  WS02001212WS02001213    1.00   0.00  0.00  0.00  0.92  0.00  0.08  0.00  0.00  0.00
  WS02001211WS02001212    1.00   0.00  0.00  0.00  1.00  0.00  0.00  0.00  0.00  0.00
  WS02003072WS02003073    1.00   0.00  0.00  0.00  0.00  0.00  0.00  1.00  0.00  0.00
  WS02003069WS02003072    1.00   0.00  0.00  0.00  1.00  0.00  0.00  0.00  0.20  0.00
  WS02003060WS02003069    1.00   0.00  0.00  0.00  0.99  0.01  0.00  0.00  0.03  0.00
  WS02003059WS02003060    1.00   0.00  0.00  0.00  1.00  0.00  0.00  0.00  0.01  0.00
  HS02004901HS02004770    1.00   0.04  0.00  0.00  0.96  0.00  0.00  0.00  0.00  0.00
  HS02004876HS02004881    1.00   0.01  0.00  0.00  0.99  0.00  0.00  0.00  0.00  0.00
  HS02004870HS02004876    1.00   0.00  0.00  0.00  0.99  0.01  0.00  0.00  0.95  0.00
  HS02004842HS02004848    1.00   0.00  0.04  0.00  0.96  0.00  0.00  0.00  0.59  0.00
  HS02004837HS02004842    1.00   0.00  0.00  0.00  1.00  0.00  0.00  0.00  0.11  0.00
  HS02004830HS02004837    1.00   0.00  0.00  0.00  1.00  0.00  0.00  0.00  0.99  0.00
  HS02004824HS02004830    1.00   0.00  0.00  0.00  1.00  0.00  0.00  0.00  0.00  0.00
  HS02004817HS02004824    1.00   0.00  0.00  0.00  1.00  0.00  0.00  0.00  1.00  0.00
  HS02004770HS02004777    1.00   0.00  0.04  0.00  0.96  0.00  0.00  0.00  0.03  0.00
  HS02004799HS02004480    1.00   0.00  0.02  0.00  0.96  0.00  0.02  0.00  0.00  0.00
  HS02004792HS02004799    1.00   0.00  0.00  0.00  1.00  0.00  0.00  0.00  0.98  0.00
  HS02004788HS02004792    1.00   0.00  0.00  0.00  1.00  0.00  0.00  0.00  0.98  0.00
  HS02004785HS02004788    1.00   0.00  0.00  0.00  1.00  0.00  0.00  0.00  0.00  0.00
  HS02004777HS02004785    1.00   0.00  0.00  0.00  1.00  0.00  0.00  0.00  0.12  0.00
  HS02004480HS02004478    1.00   0.04  0.00  0.00  0.61  0.00  0.00  0.36  0.00  0.00
  HS02004479HS02004480    1.00   0.02  0.00  0.00  0.98  0.00  0.00  0.00  0.11  0.00
  HS02004862HS02004870    1.00   0.00  0.00  0.00  1.00  0.00  0.00  0.00  0.04  0.00
  HS02004848HS02004852    1.00   0.04  0.00  0.00  0.96  0.00  0.00  0.00  0.77  0.00
  HS02004856HS02004862    1.00   0.00  0.04  0.00  0.96  0.00  0.00  0.00  0.83  0.00
  HS02004852HS02004856    1.00   0.04  0.00  0.00  0.96  0.00  0.00  0.00  0.86  0.00
  HS02004802HS02004478    1.00   0.04  0.00  0.00  0.96  0.00  0.00  0.00  0.02  0.00
  HS02004478WS02006287    1.00   0.04  0.00  0.00  0.68  0.27  0.00  0.00  0.69  0.00
  HS02004817HS02004807    1.00   0.00  0.04  0.00  0.96  0.00  0.00  0.00  0.01  0.00
  HS02004807HS02004802    1.00   0.04  0.00  0.00  0.96  0.00  0.00  0.00  0.00  0.00
  YS02001759YS02001757    1.00   0.00  0.00  0.00  1.00  0.00  0.00  0.00  0.15  0.00
  YS02001762YS02001759    1.00   0.00  0.00  0.00  1.00  0.00  0.00  0.00  0.03  0.00
  YS02001765YS02001762    1.00   0.00  0.00  0.00  1.00  0.00  0.00  0.00  0.14  0.00
  YS02001770YS02001767    1.00   0.00  0.00  0.00  1.00  0.00  0.00  0.00  0.00  0.00
  YS02001774YS02001770    1.00   0.00  0.04  0.00  0.96  0.00  0.00  0.00  0.03  0.00
  YS02001779YS02001774    1.00   0.00  0.00  0.00  1.00  0.00  0.00  0.00  0.18  0.00
  YS02001649YS02001757    1.00   0.00  0.00  0.00  1.00  0.00  0.00  0.00  0.16  0.00
  YS02001767YS02001765    1.00   0.00  0.00  0.00  1.00  0.00  0.00  0.00  0.00  0.00
  YS02006561YS02001783    1.00   0.05  0.00  0.00  0.35  0.61  0.00  0.00  0.62  0.00
  YS02001783YS02001784    1.00   0.00  0.05  0.00  0.95  0.00  0.00  0.00  0.00  0.00
  YS02001784YS02001785    1.00   0.00  0.00  0.00  1.00  0.00  0.00  0.00  0.17  0.00
  YS02001788YS02001790    1.00   0.00  0.00  0.00  0.34  0.66  0.00  0.00  0.54  0.00
  YS02001790YS02001791    1.00   0.00  0.00  0.00  0.30  0.70  0.00  0.00  0.47  0.00
  YS02001791YS02001793    1.00   0.00  0.00  0.00  0.33  0.67  0.00  0.00  0.02  0.00
  YS02001910YS02001907    1.00   0.00  0.00  0.00  0.98  0.00  0.00  0.02  0.12  0.00
  YS02001786YS02001788    1.00   0.00  0.00  0.00  0.31  0.69  0.00  0.00  0.00  0.00
  YS02001915YS02001910    1.00   0.00  0.00  0.00  0.98  0.02  0.00  0.00  0.16  0.00
  YS02001918YS02001915    1.00   0.00  0.00  0.00  0.98  0.01  0.00  0.00  0.61  0.00
  YS02001923YS02001920    1.00   0.00  0.00  0.00  1.00  0.00  0.00  0.00  1.00  0.00
  YS02001926YS02001923    1.00   0.00  0.03  0.00  0.00  0.00  0.97  0.00  0.00  0.00
  YS02001929YS02001926    1.00   0.00  0.04  0.00  0.96  0.00  0.00  0.00  0.87  0.00
  YS02001920YS02001918    1.00   0.00  0.00  0.00  1.00  0.00  0.00  0.00  0.00  0.00
  YS02001629YS02163301    1.00   0.04  0.00  0.00  0.96  0.00  0.00  0.00  0.00  0.00
  YS02001619YS02001622    1.00   0.04  0.00  0.00  0.96  0.00  0.00  0.00  0.00  0.00
  YS02001622YS02001625    1.00   0.04  0.00  0.00  0.96  0.00  0.00  0.00  0.04  0.00
  YS02001625YS02001629    1.00   0.04  0.01  0.00  0.94  0.00  0.01  0.00  0.00  0.00
  YS02163301YS02001633    1.00   0.00  0.04  0.00  0.96  0.00  0.00  0.00  0.00  0.00
  YS02163601YS02164001    1.00   0.00  0.03  0.00  0.97  0.00  0.00  0.00  0.00  0.00
  YS02164001YS02001641    1.00   0.00  0.03  0.00  0.97  0.00  0.00  0.00  0.06  0.00
  YS02001641YS02001644    1.00   0.00  0.00  0.00  1.00  0.00  0.00  0.00  0.00  0.00
  YS02001647YS02001649    1.00   0.00  0.04  0.00  0.96  0.00  0.00  0.00  0.01  0.00
  YS02006553YS02006556    1.00   0.00  0.00  0.00  1.00  0.00  0.00  0.00  0.03  0.00
  YS02006556YS02006558    1.00   0.00  0.00  0.00  1.00  0.00  0.00  0.00  0.00  0.00
  YSB6556YSB1171          1.00   0.02  0.01  0.00  0.96  0.00  0.00  0.00  0.00  0.00
  YS02001907YS02006553    1.00   0.00  0.01  0.00  0.99  0.00  0.00  0.00  0.00  0.00
  YS02006558YS02006561    1.00   0.05  0.00  0.00  0.00  0.95  0.00  0.00  0.53  0.00
  YS02001633YS02163601    1.00   0.00  0.00  0.00  1.00  0.00  0.00  0.00  0.15  0.00
  YS02001644YS02001647    1.00   0.00  0.04  0.00  0.96  0.00  0.00  0.00  0.00  0.00
  YS02001745YS02001748    1.00   0.00  0.00  0.00  0.90  0.01  0.00  0.09  0.05  0.00
  YS02001748YS02001751    1.00   0.00  0.00  0.00  0.98  0.02  0.00  0.00  0.14  0.00
  YS02001751YS02001754    1.00   0.00  0.00  0.00  0.95  0.00  0.00  0.05  0.02  0.00
  YS02001754YS02001757    1.00   0.00  0.00  0.00  1.00  0.00  0.00  0.00  0.18  0.00
  YS02001882YS02001884    1.00   0.04  0.00  0.00  0.96  0.00  0.00  0.00  0.00  0.00
  YS02001884YS02001887    1.00   0.03  0.01  0.00  0.97  0.00  0.00  0.00  0.00  0.00
  YS02001890YS02001895    1.00   0.00  0.04  0.00  0.96  0.00  0.00  0.00  0.00  0.00
  YS02001895YS02001898    1.00   0.04  0.00  0.00  0.95  0.00  0.00  0.00  0.00  0.00
  YS02001898YS02001901    1.00   0.04  0.00  0.00  0.96  0.00  0.00  0.00  0.01  0.00
  YS02001901YS02001904    1.00   0.04  0.00  0.00  0.96  0.00  0.00  0.00  0.00  0.00
  YS02001904YS02001907    1.00   0.00  0.04  0.00  0.96  0.00  0.00  0.00  0.00  0.00
  YS02001887YS02001890    1.00   0.00  0.00  0.00  0.98  0.00  0.02  0.00  0.00  0.00
  YS02001652YS02001649    1.00   0.00  0.00  0.00  1.00  0.00  0.00  0.00  0.16  0.00
  YS02001655YS02001652    1.00   0.00  0.00  0.00  0.95  0.00  0.00  0.05  0.02  0.00
  YS02001658YS02001655    1.00   0.00  0.04  0.00  0.94  0.02  0.00  0.00  0.05  0.00
  YS02001661YS02001658    1.00   0.04  0.00  0.00  0.90  0.06  0.00  0.00  0.05  0.00
  YS02001664YS02001661    1.00   0.04  0.00  0.00  0.85  0.11  0.00  0.00  0.21  0.00
  YSB1154YSB6556          1.00   0.04  0.00  0.00  0.96  0.00  0.00  0.00  0.02  0.00
  YSB1174YSB1171          1.00   0.02  0.01  0.00  0.97  0.00  0.00  0.00  0.00  0.00
  YSB1171HS02004479       1.00   0.02  0.00  0.00  0.97  0.00  0.00  0.00  0.10  0.00
  HS02004881HS02006253    1.00   0.03  0.00  0.00  0.92  0.00  0.00  0.05  0.75  0.00
  YS02001793JiankangQianchi    1.00   0.00  0.00  0.00  0.53  0.47  0.00  0.00  0.20  0.00
  YS02001757CaochengTiaoxuchi    1.00   0.00  0.06  0.00  0.94  0.00  0.00  0.00  0.00  0.00
  WSF200WS02003060        1.00   0.00  0.04  0.00  0.95  0.01  0.00  0.00  0.18  0.00
  1                       1.00   0.00  0.00  0.00  0.00  1.00  0.00  0.00  0.31  0.00
  2                       1.00   0.71  0.00  0.00  0.00  0.29  0.00  0.00  0.02  0.00
  3                       1.00   0.07  0.00  0.00  0.00  0.92  0.00  0.00  0.17  0.00
  4                       1.00   1.00  0.00  0.00  0.00  0.00  0.00  0.00  0.00  0.00
  
  
  *************************
  Conduit Surcharge Summary
  *************************
  
  ----------------------------------------------------------------------------
                                                           Hours        Hours 
                         --------- Hours Full --------   Above Full   Capacity
  Conduit                Both Ends  Upstream  Dnstream   Normal Flow   Limited
  ----------------------------------------------------------------------------
  WS02006229WS02006228        1.86      1.89      1.86      6.12         1.86
  WS02006256WS02006235        6.45      6.45      7.98      3.89         0.01
  WS02006252WS02006251        0.26      0.26      0.42      0.38         0.01
  WS02006251WS02006249        0.01      0.01      0.01      0.29         0.01
  WS02006249WS02006248        0.01      0.01      0.01      5.99         0.01
  WS02006247WS02006245        0.01      0.01      0.01      6.05         0.01
  WS02006243WS02006242        0.01      0.01      1.37      0.01         0.01
  WS02006242WS02006240        0.77      0.77      1.64      0.46         0.01
  WS02006240WS02006239        0.92      0.92      1.35      0.01         0.01
  WS02006239WS02006238        1.65      1.65      1.69      0.01         0.01
  WS02006238WS02006235        1.67      1.67      1.73      0.01         0.01
  WS02006235WS02006234        1.51      1.51      1.65      6.46         0.01
  WS02006234WS02006232        1.60      1.60      1.78      0.01         0.01
  WS02006232WS02006231        0.18      0.18      1.78      0.01         0.01
  WS02006231WS02006230        0.01      0.01      0.49      6.53         0.01
  WS02006230WS02006229        2.26      5.03      2.26      6.67         2.26
  WS02006228WS02006109        1.87      2.01      1.87      6.23         1.87
  WS02006112WS02006115        0.01      0.01      1.47      0.01         0.01
  WS02006111WS02006112        0.01      0.01      6.13      0.01         0.01
  WS02006110WS02006113        0.01      0.01      1.94      0.01         0.01
  WS02006109WS02006110        1.16      1.16      2.01      1.18         0.01
  WS02004405WS02004406        0.01      0.01      0.01      1.38         0.01
  WS02004404WS02004405        0.01      0.01      0.01      6.42         0.01
  WS02003072WS02003073        0.01      0.01      0.01      6.10         0.01
  YS02001759YS02001757        6.13      6.13      6.20      0.01         0.01
  YS02001762YS02001759        6.11      6.11      6.13      0.01         0.01
  YS02001765YS02001762        6.08      6.08      6.11      0.01         0.01
  YS02001770YS02001767        6.05      6.06      6.06      0.01         0.83
  YS02001774YS02001770        5.99      5.99      6.10      0.01         0.01
  YS02001779YS02001774        5.80      5.80      6.10      0.01         0.01
  YS02001649YS02001757        6.11      6.11      6.20      0.01         0.01
  YS02001767YS02001765        6.06      6.06      6.08      0.01         0.01
  YS02006561YS02001783        0.01      0.01      0.24      0.01         0.01
  YS02001783YS02001784        0.24      0.24      0.33      0.48         0.02
  YS02001784YS02001785        0.24      0.33      0.24      1.91         0.23
  YS02001788YS02001790        0.18      0.18      1.64      0.01         0.01
  YS02001790YS02001791        1.64      1.64      1.77      0.01         0.01
  YS02001791YS02001793        1.77      1.77      2.10      0.01         0.01
  YS02001910YS02001907        0.01      0.01      1.23      0.01         0.01
  YS02001786YS02001788        0.18      0.24      0.18      1.46         0.17
  YS02001629YS02163301        5.98      5.98      6.05      0.01         0.01
  YS02001619YS02001622        5.54      5.54      5.62      0.01         0.02
  YS02001622YS02001625        5.62      5.62      5.88      0.01         0.01
  YS02001625YS02001629        5.56      5.56      5.88      0.01         0.01
  YS02163301YS02001633        6.05      6.05      6.08      0.01         0.01
  YS02163601YS02164001        6.08      6.08      6.12      0.01         0.01
  YS02164001YS02001641        6.08      6.08      6.09      0.01         0.03
  YS02001641YS02001644        6.09      6.09      6.10      0.70         1.12
  YS02001647YS02001649        5.88      5.88      6.11      0.01         0.01
  YS02006553YS02006556        0.21      0.21      1.30      0.01         0.01
  YS02006556YS02006558        0.89      0.89      1.40      0.01         0.01
  YS02001907YS02006553        1.92      1.92      2.14      0.01         0.01
  YS02006558YS02006561        0.01      0.08      0.01      1.76         0.01
  YS02001633YS02163601        6.07      6.07      6.12      0.01         0.01
  YS02001644YS02001647        5.88      5.88      6.10      0.01         0.01
  YS02001745YS02001748        0.01      0.01      5.27      0.01         0.01
  YS02001748YS02001751        5.34      5.34      5.57      0.01         0.01
  YS02001751YS02001754        5.57      5.57      5.85      0.01         0.01
  YS02001754YS02001757        5.88      5.88      6.20      0.01         0.01
  YS02001904YS02001907        0.01      0.01      1.34      0.01         0.01
  YS02001652YS02001649        5.89      5.89      6.11      0.01         0.01
  YS02001655YS02001652        5.58      5.58      5.87      0.01         0.01
  YS02001658YS02001655        5.30      5.30      5.58      0.01         0.01
  YS02001661YS02001658        0.17      0.17      5.30      0.01         0.01
  YS02001664YS02001661        0.01      0.01      1.07      0.01         0.01
  YS02001793JiankangQianchi        2.01      2.01      3.37      0.01         0.01
  YS02001757CaochengTiaoxuchi        5.22      5.22      6.20      0.01         0.01
  
  
  ***************
  Pumping Summary
  ***************
  
  ---------------------------------------------------------------------------------------------------------
                                                  Min       Avg       Max     Total     Power    % Time Off
                        Percent   Number of      Flow      Flow      Flow    Volume     Usage    Pump Curve
  Pump                 Utilized   Start-Ups       LPS       LPS       LPS  10^6 ltr     Kw-hr    Low   High
  ---------------------------------------------------------------------------------------------------------
  CC-Pump-1               77.36           1      0.00    197.26    200.00     4.367      5.29    0.0    9.4
  CC-Pump-2                6.25           1      0.00    134.42    200.00     0.240      0.30    0.0    0.0
  JK-Pump-1               43.75           1      0.00    255.99    300.00     2.095     30.03    0.0    0.0
  JK-Pump-2               89.58           1      0.00    237.49    300.00     5.340     60.54    0.0    0.0
  XR-Pump-1               66.67           2      0.00     91.14     95.00     1.710     10.75    0.0    0.0
  XR-Pump-2               43.75           1      0.00     90.75     95.00     1.140     15.44    0.0    0.0
  XR-Pump-3               89.58           1      0.00     94.14     95.00     2.394     20.26    0.0    0.0
  XR-Pump-4               97.92           1      0.00     94.01     95.00     2.622     23.23    0.0    0.0
  

  Analysis begun on:  Wed Dec 15 10:55:00 2021
  Analysis ended on:  Wed Dec 15 10:55:05 2021
  Total elapsed time: 00:00:05